                                   MODFLOW 6
                U.S. GEOLOGICAL SURVEY MODULAR HYDROLOGIC MODEL
                          GROUNDWATER FLOW MODEL (GWF)
                            VERSION 6.3.0 03/04/2022

   MODFLOW 6 compiled Mar 02 2022 15:29:04 with Intel(R) Fortran Intel(R) 64
   Compiler Classic for applications running on Intel(R) 64, Version 2021.5.0
                             Build 20211109_000000

This software has been approved for release by the U.S. Geological 
Survey (USGS). Although the software has been subjected to rigorous 
review, the USGS reserves the right to update the software as needed 
pursuant to further analysis and review. No warranty, expressed or 
implied, is made by the USGS or the U.S. Government as to the 
functionality of the software and related material nor shall the 
fact of release constitute any such warranty. Furthermore, the 
software is released on condition that neither the USGS nor the U.S. 
Government shall be held liable for any damages resulting from its 
authorized or unauthorized use. Also refer to the USGS Water 
Resources Software User Rights Notice for complete use, copyright, 
and distribution information.


As a work of the United States Government, this USGS product is 
in the public domain within the United States. You can copy, 
modify, distribute, and perform the work, even for commercial 
purposes, all without asking permission. Additionally, USGS 
waives copyright and related rights in the work worldwide 
through CC0 1.0 Universal Public Domain Dedication 
(https://creativecommons.org/publicdomain/zero/1.0/).

The following GNU Lesser General Public License (LGPL) libraries
are used in this USGS product:

    SPARSKIT version 2.0
      ilut, luson, and qsplit 
      (https://www-users.cse.umn.edu/~saad/software/SPARSKIT/)

    RCM - Reverse Cuthill McKee Ordering
      (https://people.math.sc.edu/Burkardt/f_src/rcm/rcm.html)

    BLAS - Basic Linear Algebra Subprograms Level 1
      (https://people.math.sc.edu/Burkardt/f_src/blas1_d/blas1_d.html)

    SPARSEKIT - Sparse Matrix Utility Package
      amux, dperm, dvperm, rperm, and cperm
      (https://people.sc.fsu.edu/~jburkardt/f77_src/sparsekit/sparsekit.html)

The following BSD-3 License libraries are used in this USGS product:

    Modern Fortran DAG Library
      Copyright (c) 2018, Jacob Williams
      All rights reserved.
      (https://github.com/jacobwilliams/daglib)

MODFLOW 6 compiler options: /Isrc\libmf6core.a.p /Isrc /I..\src
/Isrc\libmf6_external.a.p /MTd /nologo /warn:general /warn:truncated_source
/stand:f08 /Zi /traceback /O2 /Zi /fpe:0 /fpp /Qdiag-disable:7416
/Qdiag-disable:7025 /Qdiag-disable:5268
/Fdsrc\libmf6core.a.p\Utilities_compilerversion.F90.pdb
/module:src\libmf6core.a.p
/Fosrc/libmf6core.a.p/Utilities_compilerversion.F90.obj /c

System command used to initiate simulation:
..\..\bin\mf6.exe

MODFLOW was compiled using uniform precision.

Real Variables
  KIND: 8
  TINY (smallest non-zero value):    2.225074-308
  HUGE (largest value):    1.797693+308
  PRECISION: 15
  BIT SIZE: 64

Integer Variables
  KIND: 4
  HUGE (largest value): 2147483647
  BIT SIZE: 32

Long Integer Variables
  KIND: 8
  HUGE (largest value): 9223372036854775807
  BIT SIZE: 64

Logical Variables
  KIND: 4
  BIT SIZE: 32
 

 OPENED .\ex-gwf-csub-p04.dis
 FILE TYPE:DIS6                   UNIT 1005   STATUS:OLD                 
 FORMAT:FORMATTED              ACCESS:SEQUENTIAL          
 ACTION:READ                


 OPENED .\ex-gwf-csub-p04.obs
 FILE TYPE:OBS6                   UNIT 1006   STATUS:OLD                 
 FORMAT:FORMATTED              ACCESS:SEQUENTIAL          
 ACTION:READ                


 OPENED .\ex-gwf-csub-p04.ic
 FILE TYPE:IC6                    UNIT 1007   STATUS:OLD                 
 FORMAT:FORMATTED              ACCESS:SEQUENTIAL          
 ACTION:READ                


 OPENED .\ex-gwf-csub-p04.npf
 FILE TYPE:NPF6                   UNIT 1008   STATUS:OLD                 
 FORMAT:FORMATTED              ACCESS:SEQUENTIAL          
 ACTION:READ                


 OPENED .\ex-gwf-csub-p04.sto
 FILE TYPE:STO6                   UNIT 1009   STATUS:OLD                 
 FORMAT:FORMATTED              ACCESS:SEQUENTIAL          
 ACTION:READ                


 OPENED .\ex-gwf-csub-p04.csub
 FILE TYPE:CSUB6                  UNIT 1010   STATUS:OLD                 
 FORMAT:FORMATTED              ACCESS:SEQUENTIAL          
 ACTION:READ                


 OPENED .\ex-gwf-csub-p04.chd
 FILE TYPE:CHD6                   UNIT 1011   STATUS:OLD                 
 FORMAT:FORMATTED              ACCESS:SEQUENTIAL          
 ACTION:READ                


 OPENED .\ex-gwf-csub-p04.rch
 FILE TYPE:RCH6                   UNIT 1012   STATUS:OLD                 
 FORMAT:FORMATTED              ACCESS:SEQUENTIAL          
 ACTION:READ                


 OPENED .\ex-gwf-csub-p04.wel
 FILE TYPE:WEL6                   UNIT 1013   STATUS:OLD                 
 FORMAT:FORMATTED              ACCESS:SEQUENTIAL          
 ACTION:READ                


 OPENED .\ex-gwf-csub-p04.oc
 FILE TYPE:OC6                    UNIT 1014   STATUS:OLD                 
 FORMAT:FORMATTED              ACCESS:SEQUENTIAL          
 ACTION:READ                

 NAMEFILE OPTIONS:
    FLOWS WILL BE SAVED TO BUDGET FILE SPECIFIED IN OUTPUT CONTROL
    NEWTON-RAPHSON method enabled for the model.

 DIS -- STRUCTURED GRID DISCRETIZATION PACKAGE, VERSION 2 : 3/27/2014 - INPUT READ FROM UNIT 1005


 # File generated by Flopy version 3.3.5 on 03/04/2022 at 11:13:53.
 PROCESSING DISCRETIZATION OPTIONS
    MODEL LENGTH UNIT IS METERS
 END OF DISCRETIZATION OPTIONS
 PROCESSING DISCRETIZATION DIMENSIONS
    NLAY =       4
    NROW =      20
    NCOL =      15
 END OF DISCRETIZATION DIMENSIONS
 PROCESSING GRIDDATA

                     DELR =   2000.000    

                     DELC =   2000.000    

 TOP ELEVATION OF LAYER 1 =   150.0000    

   MODEL LAYER BOTTOM EL. =   50.00000     FOR LAYER 1

   MODEL LAYER BOTTOM EL. =  -100.0000     FOR LAYER 2

   MODEL LAYER BOTTOM EL. =  -150.0000     FOR LAYER 3

   MODEL LAYER BOTTOM EL. =  -350.0000     FOR LAYER 4
 END PROCESSING GRIDDATA

 THE SPECIFIED IDOMAIN RESULTS IN A REDUCED NUMBER OF CELLS.
 NUMBER OF USER NODES: 1200
 NUMBER OF NODES IN SOLUTION: 848



 NPF -- NODE PROPERTY FLOW PACKAGE, VERSION 1, 3/30/2015 INPUT READ FROM UNIT 1008


 # File generated by Flopy version 3.3.5 on 03/04/2022 at 11:13:53.
 PROCESSING NPF OPTIONS
    SPECIFIC DISCHARGE WILL BE CALCULATED AT CELL CENTERS AND WRITTEN TO DATA-SPDIS IN BUDGET FILE WHEN REQUESTED.
 END OF NPF OPTIONS

 WEL   -- WEL PACKAGE, VERSION 8, 2/22/2014 INPUT READ FROM UNIT 1013
 # File generated by Flopy version 3.3.5 on 03/04/2022 at 11:13:53.

 PROCESSING WEL OPTIONS
 END OF WEL OPTIONS

 PROCESSING WEL DIMENSIONS
    MAXBOUND =       2
 END OF WEL DIMENSIONS

 RCH   -- RCH PACKAGE, VERSION 8, 2/22/2014 INPUT READ FROM UNIT 1012
 # File generated by Flopy version 3.3.5 on 03/04/2022 at 11:13:53.

 PROCESSING RCH OPTIONS
 END OF RCH OPTIONS

 PROCESSING RCH DIMENSIONS
    MAXBOUND =      18
 END OF RCH DIMENSIONS

 CHD   -- CHD PACKAGE, VERSION 8, 2/22/2014 INPUT READ FROM UNIT 1011
 # File generated by Flopy version 3.3.5 on 03/04/2022 at 11:13:53.

 PROCESSING CHD OPTIONS
 END OF CHD OPTIONS

 PROCESSING CHD DIMENSIONS
    MAXBOUND =       8
 END OF CHD DIMENSIONS

 IC -- INITIAL CONDITIONS PACKAGE, VERSION 8, 3/28/2015 INPUT READ FROM UNIT 1007
 # File generated by Flopy version 3.3.5 on 03/04/2022 at 11:13:53.
 PROCESSING GRIDDATA

     INITIAL HEAD =   100.0000    
 END PROCESSING GRIDDATA
 PROCESSING GRIDDATA

                ICELLTYPE = 1 FOR LAYER 1

                ICELLTYPE = 0 FOR LAYER 2

                ICELLTYPE = 0 FOR LAYER 3

                ICELLTYPE = 0 FOR LAYER 4

                        K =   4.000000     FOR LAYER 1

                        K =   4.000000     FOR LAYER 2

                        K =  0.1000000E-01 FOR LAYER 3

                        K =   4.000000     FOR LAYER 4
 K33 not provided.  Assuming K33 = K.
 K22 not provided.  Assuming K22 = K.
 END PROCESSING GRIDDATA

 STO -- STORAGE PACKAGE, VERSION 1, 5/19/2014 INPUT READ FROM UNIT 1009


 # File generated by Flopy version 3.3.5 on 03/04/2022 at 11:13:53.
 PROCESSING STORAGE OPTIONS
 END OF STORAGE OPTIONS
 PROCESSING GRIDDATA

                 ICONVERT = 1 FOR LAYER 1

                 ICONVERT = 0 FOR LAYER 2

                 ICONVERT = 0 FOR LAYER 3

                 ICONVERT = 0 FOR LAYER 4

         SPECIFIC STORAGE =   0.000000    

           SPECIFIC YIELD =  0.3000000     FOR LAYER 1

           SPECIFIC YIELD =  0.3000000     FOR LAYER 2

           SPECIFIC YIELD =  0.4000000     FOR LAYER 3

           SPECIFIC YIELD =  0.3000000     FOR LAYER 4
 END PROCESSING GRIDDATA

 CSUB -- COMPACTION PACKAGE, VERSION 1, 12/15/2019 INPUT READ FROM UNIT 1010


 # File generated by Flopy version 3.3.5 on 03/04/2022 at 11:13:53.
 PROCESSING CSUB OPTIONS
    CSUB BOUNDARIES HAVE NAMES IN LAST COLUMN.
    LISTS OF CSUB CELLS WILL BE PRINTED.
    FLOWS WILL BE SAVED TO BUDGET FILE SPECIFIED IN OUTPUT CONTROL

 OPENED ex-gwf-csub-p04.csub.obs
 FILE TYPE:OBS   UNIT 1016   STATUS:OLD                 
 FORMAT:FORMATTED              ACCESS:SEQUENTIAL          
 ACTION:READ                

 END OF CSUB OPTIONS


 CSUB PACKAGE SETTINGS
    NUMBER OF DELAY CELLS = 19
    EFFECTIVE-STRESS FORMULATION
    COMPRESSION INDICES WILL BE SPECIFIED INSTEAD OF ELASTIC AND
      INELASTIC SPECIFIC STORAGE COEFFICIENTS
    THICKNESS AND VOID RATIO WILL BE ADJUSTED DURING THE SIMULATION
    INTERBED THICKNESS WILL BE SPECIFIED AS A THICKNESS
    PRECONSOLIDATION STRESS WILL BE SPECIFIED RELATIVE TO INITIAL
      STRESS CONDITIONS
    DELAY INTERBED HEADS WILL BE SPECIFIED RELATIVE TO INITIAL 
      GWF HEADS
    SPECIFIC STORAGE VALUES WILL BE CALCULATED USING THE CURRENT
      EFFECTIVE STRESS
    GAMMAW        = 9806.650000000000
    BETA          = .4661200000000000E-09
    GAMMAW * BETA = .4571075698000000E-05

 PROCESSING CSUB DIMENSIONS
    NINTERBEDS = 840
 END OF CSUB DIMENSIONS

The observation utility is active for "CSUB"
 # File generated by Flopy version 3.3.5 on 03/04/2022 at 11:13:53.

Processing observation options:

Text output number of digits of precision set to: 10
The PRINT_INPUT option has been specified.


 OBSERVATIONS READ FROM FILE "ex-gwf-csub-p04.csub.obs"
 ----------------------------------------------------------------------------------------------------------------------------------------------------------------------------------------------------------------------------
 NAME                                     TYPE                                       TIME         LOCATION DATA                              OUTPUT FILENAME                                                                 
 ----------------------------------------------------------------------------------------------------------------------------------------------------------------------------------------------------------------------------
 W1L1                                     CONTINUOUS  INTERBED-COMPACTION            ALL TIMES    "  01_09_10"                               ex-gwf-csub-p04.csub.obs.csv                                                    
 W1L2                                     CONTINUOUS  INTERBED-COMPACTION            ALL TIMES    "  02_09_10"                               ex-gwf-csub-p04.csub.obs.csv                                                    
 W1L3                                     CONTINUOUS  INTERBED-COMPACTION            ALL TIMES    "  03_09_10"                               ex-gwf-csub-p04.csub.obs.csv                                                    
 W1L4                                     CONTINUOUS  INTERBED-COMPACTION            ALL TIMES    "  04_09_10"                               ex-gwf-csub-p04.csub.obs.csv                                                    
 W2L1                                     CONTINUOUS  INTERBED-COMPACTION            ALL TIMES    "  01_12_07"                               ex-gwf-csub-p04.csub.obs.csv                                                    
 W2L2                                     CONTINUOUS  INTERBED-COMPACTION            ALL TIMES    "  02_12_07"                               ex-gwf-csub-p04.csub.obs.csv                                                    
 W2L3                                     CONTINUOUS  INTERBED-COMPACTION            ALL TIMES    "  03_12_07"                               ex-gwf-csub-p04.csub.obs.csv                                                    
 W2L4                                     CONTINUOUS  INTERBED-COMPACTION            ALL TIMES    "  04_12_07"                               ex-gwf-csub-p04.csub.obs.csv                                                    
 S1L1                                     CONTINUOUS  COARSE-COMPACTION              ALL TIMES    "  1 9 10"                                 ex-gwf-csub-p04.csub.obs.csv                                                    
 S1L2                                     CONTINUOUS  COARSE-COMPACTION              ALL TIMES    "  2 9 10"                                 ex-gwf-csub-p04.csub.obs.csv                                                    
 S1L3                                     CONTINUOUS  COARSE-COMPACTION              ALL TIMES    "  3 9 10"                                 ex-gwf-csub-p04.csub.obs.csv                                                    
 S1L4                                     CONTINUOUS  COARSE-COMPACTION              ALL TIMES    "  4 9 10"                                 ex-gwf-csub-p04.csub.obs.csv                                                    
 S2L1                                     CONTINUOUS  COARSE-COMPACTION              ALL TIMES    "  1 12 7"                                 ex-gwf-csub-p04.csub.obs.csv                                                    
 S2L2                                     CONTINUOUS  COARSE-COMPACTION              ALL TIMES    "  2 12 7"                                 ex-gwf-csub-p04.csub.obs.csv                                                    
 S2L3                                     CONTINUOUS  COARSE-COMPACTION              ALL TIMES    "  3 12 7"                                 ex-gwf-csub-p04.csub.obs.csv                                                    
 S2L4                                     CONTINUOUS  COARSE-COMPACTION              ALL TIMES    "  4 12 7"                                 ex-gwf-csub-p04.csub.obs.csv                                                    
 C1L1                                     CONTINUOUS  COMPACTION-CELL                ALL TIMES    "  1 9 10"                                 ex-gwf-csub-p04.csub.obs.csv                                                    
 C1L2                                     CONTINUOUS  COMPACTION-CELL                ALL TIMES    "  2 9 10"                                 ex-gwf-csub-p04.csub.obs.csv                                                    
 C1L3                                     CONTINUOUS  COMPACTION-CELL                ALL TIMES    "  3 9 10"                                 ex-gwf-csub-p04.csub.obs.csv                                                    
 C1L4                                     CONTINUOUS  COMPACTION-CELL                ALL TIMES    "  4 9 10"                                 ex-gwf-csub-p04.csub.obs.csv                                                    
 C2L1                                     CONTINUOUS  COMPACTION-CELL                ALL TIMES    "  1 12 7"                                 ex-gwf-csub-p04.csub.obs.csv                                                    
 C2L2                                     CONTINUOUS  COMPACTION-CELL                ALL TIMES    "  2 12 7"                                 ex-gwf-csub-p04.csub.obs.csv                                                    
 C2L3                                     CONTINUOUS  COMPACTION-CELL                ALL TIMES    "  3 12 7"                                 ex-gwf-csub-p04.csub.obs.csv                                                    
 C2L4                                     CONTINUOUS  COMPACTION-CELL                ALL TIMES    "  4 12 7"                                 ex-gwf-csub-p04.csub.obs.csv                                                    
 W2L4Q                                    CONTINUOUS  CSUB-CELL                      ALL TIMES    "  4 12 7"                                 ex-gwf-csub-p04.csub.obs.csv                                                    
 GS1                                      CONTINUOUS  GSTRESS-CELL                   ALL TIMES    "  1 9 10"                                 ex-gwf-csub-p04.csub.obs.csv                                                    
 ES1                                      CONTINUOUS  ESTRESS-CELL                   ALL TIMES    "  1 9 10"                                 ex-gwf-csub-p04.csub.obs.csv                                                    
 PC1                                      CONTINUOUS  PRECONSTRESS-CELL              ALL TIMES    "  1 9 10"                                 ex-gwf-csub-p04.csub.obs.csv                                                    
 GS2                                      CONTINUOUS  GSTRESS-CELL                   ALL TIMES    "  2 9 10"                                 ex-gwf-csub-p04.csub.obs.csv                                                    
 ES2                                      CONTINUOUS  ESTRESS-CELL                   ALL TIMES    "  2 9 10"                                 ex-gwf-csub-p04.csub.obs.csv                                                    
 PC2                                      CONTINUOUS  PRECONSTRESS-CELL              ALL TIMES    "  2 9 10"                                 ex-gwf-csub-p04.csub.obs.csv                                                    
 GS3                                      CONTINUOUS  GSTRESS-CELL                   ALL TIMES    "  3 9 10"                                 ex-gwf-csub-p04.csub.obs.csv                                                    
 ES3                                      CONTINUOUS  ESTRESS-CELL                   ALL TIMES    "  3 9 10"                                 ex-gwf-csub-p04.csub.obs.csv                                                    
 PC3                                      CONTINUOUS  PRECONSTRESS-CELL              ALL TIMES    "  3 9 10"                                 ex-gwf-csub-p04.csub.obs.csv                                                    
 GS4                                      CONTINUOUS  GSTRESS-CELL                   ALL TIMES    "  4 9 10"                                 ex-gwf-csub-p04.csub.obs.csv                                                    
 ES4                                      CONTINUOUS  ESTRESS-CELL                   ALL TIMES    "  4 9 10"                                 ex-gwf-csub-p04.csub.obs.csv                                                    
 PC4                                      CONTINUOUS  PRECONSTRESS-CELL              ALL TIMES    "  4 9 10"                                 ex-gwf-csub-p04.csub.obs.csv                                                    
 SK1L2                                    CONTINUOUS  SKE-CELL                       ALL TIMES    "  2 9 10"                                 ex-gwf-csub-p04.csub.obs.csv                                                    
 SK2L4                                    CONTINUOUS  SKE-CELL                       ALL TIMES    "  4 12 7"                                 ex-gwf-csub-p04.csub.obs.csv                                                    
 T1L2                                     CONTINUOUS  THETA                          ALL TIMES    "  02_09_10"                               ex-gwf-csub-p04.csub.obs.csv                                                    
 W1QIE                                    CONTINUOUS  ELASTIC-CSUB                   ALL TIMES    "  02_09_10"                               ex-gwf-csub-p04.csub.obs.csv                                                    
 W1QII                                    CONTINUOUS  INELASTIC-CSUB                 ALL TIMES    "  02_09_10"                               ex-gwf-csub-p04.csub.obs.csv                                                    
 W1QAQ                                    CONTINUOUS  COARSE-CSUB                    ALL TIMES    "  2 9 10"                                 ex-gwf-csub-p04.csub.obs.csv                                                    
 W1QT                                     CONTINUOUS  CSUB-CELL                      ALL TIMES    "  2 9 10"                                 ex-gwf-csub-p04.csub.obs.csv                                                    
 W1WC                                     CONTINUOUS  WCOMP-CSUB-CELL                ALL TIMES    "  2 9 10"                                 ex-gwf-csub-p04.csub.obs.csv                                                    
 W2QIE                                    CONTINUOUS  ELASTIC-CSUB                   ALL TIMES    "  04_12_07"                               ex-gwf-csub-p04.csub.obs.csv                                                    
 W2QII                                    CONTINUOUS  INELASTIC-CSUB                 ALL TIMES    "  04_12_07"                               ex-gwf-csub-p04.csub.obs.csv                                                    
 W2QAQ                                    CONTINUOUS  COARSE-CSUB                    ALL TIMES    "  4 12 7"                                 ex-gwf-csub-p04.csub.obs.csv                                                    
 W2QT                                     CONTINUOUS  CSUB-CELL                      ALL TIMES    "  4 12 7"                                 ex-gwf-csub-p04.csub.obs.csv                                                    
 W2WC                                     CONTINUOUS  WCOMP-CSUB-CELL                ALL TIMES    "  4 12 7"                                 ex-gwf-csub-p04.csub.obs.csv                                                    
 ----------------------------------------------------------------------------------------------------------------------------------------------------------------------------------------------------------------------------



 CG_SKE_CR =  0.5000000E-02 FOR LAYER 1

 CG_SKE_CR =  0.5000000E-02 FOR LAYER 2

 CG_SKE_CR =  0.1000000E-01 FOR LAYER 3

 CG_SKE_CR =  0.5000000E-02 FOR LAYER 4

 CG_THETA =  0.3200000     FOR LAYER 1

 CG_THETA =  0.3200000     FOR LAYER 2

 CG_THETA =  0.4500000     FOR LAYER 3

 CG_THETA =  0.3200000     FOR LAYER 4

 SGM =   1.770000     FOR LAYER 1

 SGM =   1.770000     FOR LAYER 2

 SGM =   1.600000     FOR LAYER 3

 SGM =   1.770000     FOR LAYER 4

 SGS =   2.060000     FOR LAYER 1

 SGS =   2.050000     FOR LAYER 2

 SGS =   1.940000     FOR LAYER 3

 SGS =   2.060000     FOR LAYER 4

 PROCESSING CSUB PACKAGEDATA
 END OF CSUB PACKAGEDATA

 CSUB PACKAGE INTERBED DATA
 ---------------------------------------------------------------------------------------------------------------------------------------------------------------------------
 INTERBED          CELLID          CDELAY      PCS       THICK       RNB       SSV_CC     SSV_CR     THETA        KV         H0     BOUNDNAME                               
 ---------------------------------------------------------------------------------------------------------------------------------------------------------------------------
 1                (1,1,6)         NODELAY    15.0       45.0       1.00       0.250      1.000E-02  0.450         -          -      01_01_06                                
 2                (2,1,6)         NODELAY    15.0       70.0       1.00       0.250      1.000E-02  0.450         -          -      02_01_06                                
 3                (3,1,6)         NODELAY    15.0       50.0       1.00       0.250      1.000E-02  0.450         -          -      03_01_06                                
 4                (4,1,6)         NODELAY    15.0       90.0       1.00       0.250      1.000E-02  0.450         -          -      04_01_06                                
 5                (1,1,7)         NODELAY    15.0       45.0       1.00       0.250      1.000E-02  0.450         -          -      01_01_07                                
 6                (2,1,7)         NODELAY    15.0       70.0       1.00       0.250      1.000E-02  0.450         -          -      02_01_07                                
 7                (3,1,7)         NODELAY    15.0       50.0       1.00       0.250      1.000E-02  0.450         -          -      03_01_07                                
 8                (4,1,7)         NODELAY    15.0       90.0       1.00       0.250      1.000E-02  0.450         -          -      04_01_07                                
 9                (1,1,8)         NODELAY    15.0       45.0       1.00       0.250      1.000E-02  0.450         -          -      01_01_08                                
 10               (2,1,8)         NODELAY    15.0       70.0       1.00       0.250      1.000E-02  0.450         -          -      02_01_08                                
 11               (3,1,8)         NODELAY    15.0       50.0       1.00       0.250      1.000E-02  0.450         -          -      03_01_08                                
 12               (4,1,8)         NODELAY    15.0       90.0       1.00       0.250      1.000E-02  0.450         -          -      04_01_08                                
 13               (1,1,9)         NODELAY    15.0       45.0       1.00       0.250      1.000E-02  0.450         -          -      01_01_09                                
 14               (2,1,9)         NODELAY    15.0       70.0       1.00       0.250      1.000E-02  0.450         -          -      02_01_09                                
 15               (3,1,9)         NODELAY    15.0       50.0       1.00       0.250      1.000E-02  0.450         -          -      03_01_09                                
 16               (4,1,9)         NODELAY    15.0       90.0       1.00       0.250      1.000E-02  0.450         -          -      04_01_09                                
 17               (1,1,10)        NODELAY    15.0       45.0       1.00       0.250      1.000E-02  0.450         -          -      01_01_10                                
 18               (2,1,10)        NODELAY    15.0       70.0       1.00       0.250      1.000E-02  0.450         -          -      02_01_10                                
 19               (3,1,10)        NODELAY    15.0       50.0       1.00       0.250      1.000E-02  0.450         -          -      03_01_10                                
 20               (4,1,10)        NODELAY    15.0       90.0       1.00       0.250      1.000E-02  0.450         -          -      04_01_10                                
 21               (1,2,5)         NODELAY    15.0       45.0       1.00       0.250      1.000E-02  0.450         -          -      01_02_05                                
 22               (2,2,5)         NODELAY    15.0       70.0       1.00       0.250      1.000E-02  0.450         -          -      02_02_05                                
 23               (3,2,5)         NODELAY    15.0       50.0       1.00       0.250      1.000E-02  0.450         -          -      03_02_05                                
 24               (4,2,5)         NODELAY    15.0       90.0       1.00       0.250      1.000E-02  0.450         -          -      04_02_05                                
 25               (1,2,6)         NODELAY    15.0       45.0       1.00       0.250      1.000E-02  0.450         -          -      01_02_06                                
 26               (2,2,6)         NODELAY    15.0       70.0       1.00       0.250      1.000E-02  0.450         -          -      02_02_06                                
 27               (3,2,6)         NODELAY    15.0       50.0       1.00       0.250      1.000E-02  0.450         -          -      03_02_06                                
 28               (4,2,6)         NODELAY    15.0       90.0       1.00       0.250      1.000E-02  0.450         -          -      04_02_06                                
 29               (1,2,7)         NODELAY    15.0       45.0       1.00       0.250      1.000E-02  0.450         -          -      01_02_07                                
 30               (2,2,7)         NODELAY    15.0       70.0       1.00       0.250      1.000E-02  0.450         -          -      02_02_07                                
 31               (3,2,7)         NODELAY    15.0       50.0       1.00       0.250      1.000E-02  0.450         -          -      03_02_07                                
 32               (4,2,7)         NODELAY    15.0       90.0       1.00       0.250      1.000E-02  0.450         -          -      04_02_07                                
 33               (1,2,8)         NODELAY    15.0       45.0       1.00       0.250      1.000E-02  0.450         -          -      01_02_08                                
 34               (2,2,8)         NODELAY    15.0       70.0       1.00       0.250      1.000E-02  0.450         -          -      02_02_08                                
 35               (3,2,8)         NODELAY    15.0       50.0       1.00       0.250      1.000E-02  0.450         -          -      03_02_08                                
 36               (4,2,8)         NODELAY    15.0       90.0       1.00       0.250      1.000E-02  0.450         -          -      04_02_08                                
 37               (1,2,9)         NODELAY    15.0       45.0       1.00       0.250      1.000E-02  0.450         -          -      01_02_09                                
 38               (2,2,9)         NODELAY    15.0       70.0       1.00       0.250      1.000E-02  0.450         -          -      02_02_09                                
 39               (3,2,9)         NODELAY    15.0       50.0       1.00       0.250      1.000E-02  0.450         -          -      03_02_09                                
 40               (4,2,9)         NODELAY    15.0       90.0       1.00       0.250      1.000E-02  0.450         -          -      04_02_09                                
 41               (1,2,10)        NODELAY    15.0       45.0       1.00       0.250      1.000E-02  0.450         -          -      01_02_10                                
 42               (2,2,10)        NODELAY    15.0       70.0       1.00       0.250      1.000E-02  0.450         -          -      02_02_10                                
 43               (3,2,10)        NODELAY    15.0       50.0       1.00       0.250      1.000E-02  0.450         -          -      03_02_10                                
 44               (4,2,10)        NODELAY    15.0       90.0       1.00       0.250      1.000E-02  0.450         -          -      04_02_10                                
 45               (1,2,11)        NODELAY    15.0       45.0       1.00       0.250      1.000E-02  0.450         -          -      01_02_11                                
 46               (2,2,11)        NODELAY    15.0       70.0       1.00       0.250      1.000E-02  0.450         -          -      02_02_11                                
 47               (3,2,11)        NODELAY    15.0       50.0       1.00       0.250      1.000E-02  0.450         -          -      03_02_11                                
 48               (4,2,11)        NODELAY    15.0       90.0       1.00       0.250      1.000E-02  0.450         -          -      04_02_11                                
 49               (1,2,12)        NODELAY    15.0       45.0       1.00       0.250      1.000E-02  0.450         -          -      01_02_12                                
 50               (2,2,12)        NODELAY    15.0       70.0       1.00       0.250      1.000E-02  0.450         -          -      02_02_12                                
 51               (3,2,12)        NODELAY    15.0       50.0       1.00       0.250      1.000E-02  0.450         -          -      03_02_12                                
 52               (4,2,12)        NODELAY    15.0       90.0       1.00       0.250      1.000E-02  0.450         -          -      04_02_12                                
 53               (1,3,4)         NODELAY    15.0       45.0       1.00       0.250      1.000E-02  0.450         -          -      01_03_04                                
 54               (2,3,4)         NODELAY    15.0       70.0       1.00       0.250      1.000E-02  0.450         -          -      02_03_04                                
 55               (3,3,4)         NODELAY    15.0       50.0       1.00       0.250      1.000E-02  0.450         -          -      03_03_04                                
 56               (4,3,4)         NODELAY    15.0       90.0       1.00       0.250      1.000E-02  0.450         -          -      04_03_04                                
 57               (1,3,5)         NODELAY    15.0       45.0       1.00       0.250      1.000E-02  0.450         -          -      01_03_05                                
 58               (2,3,5)         NODELAY    15.0       70.0       1.00       0.250      1.000E-02  0.450         -          -      02_03_05                                
 59               (3,3,5)         NODELAY    15.0       50.0       1.00       0.250      1.000E-02  0.450         -          -      03_03_05                                
 60               (4,3,5)         NODELAY    15.0       90.0       1.00       0.250      1.000E-02  0.450         -          -      04_03_05                                
 61               (1,3,6)         NODELAY    15.0       45.0       1.00       0.250      1.000E-02  0.450         -          -      01_03_06                                
 62               (2,3,6)         NODELAY    15.0       70.0       1.00       0.250      1.000E-02  0.450         -          -      02_03_06                                
 63               (3,3,6)         NODELAY    15.0       50.0       1.00       0.250      1.000E-02  0.450         -          -      03_03_06                                
 64               (4,3,6)         NODELAY    15.0       90.0       1.00       0.250      1.000E-02  0.450         -          -      04_03_06                                
 65               (1,3,7)         NODELAY    15.0       45.0       1.00       0.250      1.000E-02  0.450         -          -      01_03_07                                
 66               (2,3,7)         NODELAY    15.0       70.0       1.00       0.250      1.000E-02  0.450         -          -      02_03_07                                
 67               (3,3,7)         NODELAY    15.0       50.0       1.00       0.250      1.000E-02  0.450         -          -      03_03_07                                
 68               (4,3,7)         NODELAY    15.0       90.0       1.00       0.250      1.000E-02  0.450         -          -      04_03_07                                
 69               (1,3,8)         NODELAY    15.0       45.0       1.00       0.250      1.000E-02  0.450         -          -      01_03_08                                
 70               (2,3,8)         NODELAY    15.0       70.0       1.00       0.250      1.000E-02  0.450         -          -      02_03_08                                
 71               (3,3,8)         NODELAY    15.0       50.0       1.00       0.250      1.000E-02  0.450         -          -      03_03_08                                
 72               (4,3,8)         NODELAY    15.0       90.0       1.00       0.250      1.000E-02  0.450         -          -      04_03_08                                
 73               (1,3,9)         NODELAY    15.0       45.0       1.00       0.250      1.000E-02  0.450         -          -      01_03_09                                
 74               (2,3,9)         NODELAY    15.0       70.0       1.00       0.250      1.000E-02  0.450         -          -      02_03_09                                
 75               (3,3,9)         NODELAY    15.0       50.0       1.00       0.250      1.000E-02  0.450         -          -      03_03_09                                
 76               (4,3,9)         NODELAY    15.0       90.0       1.00       0.250      1.000E-02  0.450         -          -      04_03_09                                
 77               (1,3,10)        NODELAY    15.0       45.0       1.00       0.250      1.000E-02  0.450         -          -      01_03_10                                
 78               (2,3,10)        NODELAY    15.0       70.0       1.00       0.250      1.000E-02  0.450         -          -      02_03_10                                
 79               (3,3,10)        NODELAY    15.0       50.0       1.00       0.250      1.000E-02  0.450         -          -      03_03_10                                
 80               (4,3,10)        NODELAY    15.0       90.0       1.00       0.250      1.000E-02  0.450         -          -      04_03_10                                
 81               (1,3,11)        NODELAY    15.0       45.0       1.00       0.250      1.000E-02  0.450         -          -      01_03_11                                
 82               (2,3,11)        NODELAY    15.0       70.0       1.00       0.250      1.000E-02  0.450         -          -      02_03_11                                
 83               (3,3,11)        NODELAY    15.0       50.0       1.00       0.250      1.000E-02  0.450         -          -      03_03_11                                
 84               (4,3,11)        NODELAY    15.0       90.0       1.00       0.250      1.000E-02  0.450         -          -      04_03_11                                
 85               (1,3,12)        NODELAY    15.0       45.0       1.00       0.250      1.000E-02  0.450         -          -      01_03_12                                
 86               (2,3,12)        NODELAY    15.0       70.0       1.00       0.250      1.000E-02  0.450         -          -      02_03_12                                
 87               (3,3,12)        NODELAY    15.0       50.0       1.00       0.250      1.000E-02  0.450         -          -      03_03_12                                
 88               (4,3,12)        NODELAY    15.0       90.0       1.00       0.250      1.000E-02  0.450         -          -      04_03_12                                
 89               (1,4,4)         NODELAY    15.0       45.0       1.00       0.250      1.000E-02  0.450         -          -      01_04_04                                
 90               (2,4,4)         NODELAY    15.0       70.0       1.00       0.250      1.000E-02  0.450         -          -      02_04_04                                
 91               (3,4,4)         NODELAY    15.0       50.0       1.00       0.250      1.000E-02  0.450         -          -      03_04_04                                
 92               (4,4,4)         NODELAY    15.0       90.0       1.00       0.250      1.000E-02  0.450         -          -      04_04_04                                
 93               (1,4,5)         NODELAY    15.0       45.0       1.00       0.250      1.000E-02  0.450         -          -      01_04_05                                
 94               (2,4,5)         NODELAY    15.0       70.0       1.00       0.250      1.000E-02  0.450         -          -      02_04_05                                
 95               (3,4,5)         NODELAY    15.0       50.0       1.00       0.250      1.000E-02  0.450         -          -      03_04_05                                
 96               (4,4,5)         NODELAY    15.0       90.0       1.00       0.250      1.000E-02  0.450         -          -      04_04_05                                
 97               (1,4,6)         NODELAY    15.0       45.0       1.00       0.250      1.000E-02  0.450         -          -      01_04_06                                
 98               (2,4,6)         NODELAY    15.0       70.0       1.00       0.250      1.000E-02  0.450         -          -      02_04_06                                
 99               (3,4,6)         NODELAY    15.0       50.0       1.00       0.250      1.000E-02  0.450         -          -      03_04_06                                
 100              (4,4,6)         NODELAY    15.0       90.0       1.00       0.250      1.000E-02  0.450         -          -      04_04_06                                
 101              (1,4,7)         NODELAY    15.0       45.0       1.00       0.250      1.000E-02  0.450         -          -      01_04_07                                
 102              (2,4,7)         NODELAY    15.0       70.0       1.00       0.250      1.000E-02  0.450         -          -      02_04_07                                
 103              (3,4,7)         NODELAY    15.0       50.0       1.00       0.250      1.000E-02  0.450         -          -      03_04_07                                
 104              (4,4,7)         NODELAY    15.0       90.0       1.00       0.250      1.000E-02  0.450         -          -      04_04_07                                
 105              (1,4,8)         NODELAY    15.0       45.0       1.00       0.250      1.000E-02  0.450         -          -      01_04_08                                
 106              (2,4,8)         NODELAY    15.0       70.0       1.00       0.250      1.000E-02  0.450         -          -      02_04_08                                
 107              (3,4,8)         NODELAY    15.0       50.0       1.00       0.250      1.000E-02  0.450         -          -      03_04_08                                
 108              (4,4,8)         NODELAY    15.0       90.0       1.00       0.250      1.000E-02  0.450         -          -      04_04_08                                
 109              (1,4,9)         NODELAY    15.0       45.0       1.00       0.250      1.000E-02  0.450         -          -      01_04_09                                
 110              (2,4,9)         NODELAY    15.0       70.0       1.00       0.250      1.000E-02  0.450         -          -      02_04_09                                
 111              (3,4,9)         NODELAY    15.0       50.0       1.00       0.250      1.000E-02  0.450         -          -      03_04_09                                
 112              (4,4,9)         NODELAY    15.0       90.0       1.00       0.250      1.000E-02  0.450         -          -      04_04_09                                
 113              (1,4,10)        NODELAY    15.0       45.0       1.00       0.250      1.000E-02  0.450         -          -      01_04_10                                
 114              (2,4,10)        NODELAY    15.0       70.0       1.00       0.250      1.000E-02  0.450         -          -      02_04_10                                
 115              (3,4,10)        NODELAY    15.0       50.0       1.00       0.250      1.000E-02  0.450         -          -      03_04_10                                
 116              (4,4,10)        NODELAY    15.0       90.0       1.00       0.250      1.000E-02  0.450         -          -      04_04_10                                
 117              (1,4,11)        NODELAY    15.0       45.0       1.00       0.250      1.000E-02  0.450         -          -      01_04_11                                
 118              (2,4,11)        NODELAY    15.0       70.0       1.00       0.250      1.000E-02  0.450         -          -      02_04_11                                
 119              (3,4,11)        NODELAY    15.0       50.0       1.00       0.250      1.000E-02  0.450         -          -      03_04_11                                
 120              (4,4,11)        NODELAY    15.0       90.0       1.00       0.250      1.000E-02  0.450         -          -      04_04_11                                
 121              (1,4,12)        NODELAY    15.0       45.0       1.00       0.250      1.000E-02  0.450         -          -      01_04_12                                
 122              (2,4,12)        NODELAY    15.0       70.0       1.00       0.250      1.000E-02  0.450         -          -      02_04_12                                
 123              (3,4,12)        NODELAY    15.0       50.0       1.00       0.250      1.000E-02  0.450         -          -      03_04_12                                
 124              (4,4,12)        NODELAY    15.0       90.0       1.00       0.250      1.000E-02  0.450         -          -      04_04_12                                
 125              (1,5,3)         NODELAY    15.0       45.0       1.00       0.250      1.000E-02  0.450         -          -      01_05_03                                
 126              (2,5,3)         NODELAY    15.0       70.0       1.00       0.250      1.000E-02  0.450         -          -      02_05_03                                
 127              (3,5,3)         NODELAY    15.0       50.0       1.00       0.250      1.000E-02  0.450         -          -      03_05_03                                
 128              (4,5,3)         NODELAY    15.0       90.0       1.00       0.250      1.000E-02  0.450         -          -      04_05_03                                
 129              (1,5,4)         NODELAY    15.0       45.0       1.00       0.250      1.000E-02  0.450         -          -      01_05_04                                
 130              (2,5,4)         NODELAY    15.0       70.0       1.00       0.250      1.000E-02  0.450         -          -      02_05_04                                
 131              (3,5,4)         NODELAY    15.0       50.0       1.00       0.250      1.000E-02  0.450         -          -      03_05_04                                
 132              (4,5,4)         NODELAY    15.0       90.0       1.00       0.250      1.000E-02  0.450         -          -      04_05_04                                
 133              (1,5,5)         NODELAY    15.0       45.0       1.00       0.250      1.000E-02  0.450         -          -      01_05_05                                
 134              (2,5,5)         NODELAY    15.0       70.0       1.00       0.250      1.000E-02  0.450         -          -      02_05_05                                
 135              (3,5,5)         NODELAY    15.0       50.0       1.00       0.250      1.000E-02  0.450         -          -      03_05_05                                
 136              (4,5,5)         NODELAY    15.0       90.0       1.00       0.250      1.000E-02  0.450         -          -      04_05_05                                
 137              (1,5,6)         NODELAY    15.0       45.0       1.00       0.250      1.000E-02  0.450         -          -      01_05_06                                
 138              (2,5,6)         NODELAY    15.0       70.0       1.00       0.250      1.000E-02  0.450         -          -      02_05_06                                
 139              (3,5,6)         NODELAY    15.0       50.0       1.00       0.250      1.000E-02  0.450         -          -      03_05_06                                
 140              (4,5,6)         NODELAY    15.0       90.0       1.00       0.250      1.000E-02  0.450         -          -      04_05_06                                
 141              (1,5,7)         NODELAY    15.0       45.0       1.00       0.250      1.000E-02  0.450         -          -      01_05_07                                
 142              (2,5,7)         NODELAY    15.0       70.0       1.00       0.250      1.000E-02  0.450         -          -      02_05_07                                
 143              (3,5,7)         NODELAY    15.0       50.0       1.00       0.250      1.000E-02  0.450         -          -      03_05_07                                
 144              (4,5,7)         NODELAY    15.0       90.0       1.00       0.250      1.000E-02  0.450         -          -      04_05_07                                
 145              (1,5,8)         NODELAY    15.0       45.0       1.00       0.250      1.000E-02  0.450         -          -      01_05_08                                
 146              (2,5,8)         NODELAY    15.0       70.0       1.00       0.250      1.000E-02  0.450         -          -      02_05_08                                
 147              (3,5,8)         NODELAY    15.0       50.0       1.00       0.250      1.000E-02  0.450         -          -      03_05_08                                
 148              (4,5,8)         NODELAY    15.0       90.0       1.00       0.250      1.000E-02  0.450         -          -      04_05_08                                
 149              (1,5,9)         NODELAY    15.0       45.0       1.00       0.250      1.000E-02  0.450         -          -      01_05_09                                
 150              (2,5,9)         NODELAY    15.0       70.0       1.00       0.250      1.000E-02  0.450         -          -      02_05_09                                
 151              (3,5,9)         NODELAY    15.0       50.0       1.00       0.250      1.000E-02  0.450         -          -      03_05_09                                
 152              (4,5,9)         NODELAY    15.0       90.0       1.00       0.250      1.000E-02  0.450         -          -      04_05_09                                
 153              (1,5,10)        NODELAY    15.0       45.0       1.00       0.250      1.000E-02  0.450         -          -      01_05_10                                
 154              (2,5,10)        NODELAY    15.0       70.0       1.00       0.250      1.000E-02  0.450         -          -      02_05_10                                
 155              (3,5,10)        NODELAY    15.0       50.0       1.00       0.250      1.000E-02  0.450         -          -      03_05_10                                
 156              (4,5,10)        NODELAY    15.0       90.0       1.00       0.250      1.000E-02  0.450         -          -      04_05_10                                
 157              (1,5,11)        NODELAY    15.0       45.0       1.00       0.250      1.000E-02  0.450         -          -      01_05_11                                
 158              (2,5,11)        NODELAY    15.0       70.0       1.00       0.250      1.000E-02  0.450         -          -      02_05_11                                
 159              (3,5,11)        NODELAY    15.0       50.0       1.00       0.250      1.000E-02  0.450         -          -      03_05_11                                
 160              (4,5,11)        NODELAY    15.0       90.0       1.00       0.250      1.000E-02  0.450         -          -      04_05_11                                
 161              (1,5,12)        NODELAY    15.0       45.0       1.00       0.250      1.000E-02  0.450         -          -      01_05_12                                
 162              (2,5,12)        NODELAY    15.0       70.0       1.00       0.250      1.000E-02  0.450         -          -      02_05_12                                
 163              (3,5,12)        NODELAY    15.0       50.0       1.00       0.250      1.000E-02  0.450         -          -      03_05_12                                
 164              (4,5,12)        NODELAY    15.0       90.0       1.00       0.250      1.000E-02  0.450         -          -      04_05_12                                
 165              (1,5,13)        NODELAY    15.0       45.0       1.00       0.250      1.000E-02  0.450         -          -      01_05_13                                
 166              (2,5,13)        NODELAY    15.0       70.0       1.00       0.250      1.000E-02  0.450         -          -      02_05_13                                
 167              (3,5,13)        NODELAY    15.0       50.0       1.00       0.250      1.000E-02  0.450         -          -      03_05_13                                
 168              (4,5,13)        NODELAY    15.0       90.0       1.00       0.250      1.000E-02  0.450         -          -      04_05_13                                
 169              (1,6,3)         NODELAY    15.0       45.0       1.00       0.250      1.000E-02  0.450         -          -      01_06_03                                
 170              (2,6,3)         NODELAY    15.0       70.0       1.00       0.250      1.000E-02  0.450         -          -      02_06_03                                
 171              (3,6,3)         NODELAY    15.0       50.0       1.00       0.250      1.000E-02  0.450         -          -      03_06_03                                
 172              (4,6,3)         NODELAY    15.0       90.0       1.00       0.250      1.000E-02  0.450         -          -      04_06_03                                
 173              (1,6,4)         NODELAY    15.0       45.0       1.00       0.250      1.000E-02  0.450         -          -      01_06_04                                
 174              (2,6,4)         NODELAY    15.0       70.0       1.00       0.250      1.000E-02  0.450         -          -      02_06_04                                
 175              (3,6,4)         NODELAY    15.0       50.0       1.00       0.250      1.000E-02  0.450         -          -      03_06_04                                
 176              (4,6,4)         NODELAY    15.0       90.0       1.00       0.250      1.000E-02  0.450         -          -      04_06_04                                
 177              (1,6,5)         NODELAY    15.0       45.0       1.00       0.250      1.000E-02  0.450         -          -      01_06_05                                
 178              (2,6,5)         NODELAY    15.0       70.0       1.00       0.250      1.000E-02  0.450         -          -      02_06_05                                
 179              (3,6,5)         NODELAY    15.0       50.0       1.00       0.250      1.000E-02  0.450         -          -      03_06_05                                
 180              (4,6,5)         NODELAY    15.0       90.0       1.00       0.250      1.000E-02  0.450         -          -      04_06_05                                
 181              (1,6,6)         NODELAY    15.0       45.0       1.00       0.250      1.000E-02  0.450         -          -      01_06_06                                
 182              (2,6,6)         NODELAY    15.0       70.0       1.00       0.250      1.000E-02  0.450         -          -      02_06_06                                
 183              (3,6,6)         NODELAY    15.0       50.0       1.00       0.250      1.000E-02  0.450         -          -      03_06_06                                
 184              (4,6,6)         NODELAY    15.0       90.0       1.00       0.250      1.000E-02  0.450         -          -      04_06_06                                
 185              (1,6,7)         NODELAY    15.0       45.0       1.00       0.250      1.000E-02  0.450         -          -      01_06_07                                
 186              (2,6,7)         NODELAY    15.0       70.0       1.00       0.250      1.000E-02  0.450         -          -      02_06_07                                
 187              (3,6,7)         NODELAY    15.0       50.0       1.00       0.250      1.000E-02  0.450         -          -      03_06_07                                
 188              (4,6,7)         NODELAY    15.0       90.0       1.00       0.250      1.000E-02  0.450         -          -      04_06_07                                
 189              (1,6,8)         NODELAY    15.0       45.0       1.00       0.250      1.000E-02  0.450         -          -      01_06_08                                
 190              (2,6,8)         NODELAY    15.0       70.0       1.00       0.250      1.000E-02  0.450         -          -      02_06_08                                
 191              (3,6,8)         NODELAY    15.0       50.0       1.00       0.250      1.000E-02  0.450         -          -      03_06_08                                
 192              (4,6,8)         NODELAY    15.0       90.0       1.00       0.250      1.000E-02  0.450         -          -      04_06_08                                
 193              (1,6,9)         NODELAY    15.0       45.0       1.00       0.250      1.000E-02  0.450         -          -      01_06_09                                
 194              (2,6,9)         NODELAY    15.0       70.0       1.00       0.250      1.000E-02  0.450         -          -      02_06_09                                
 195              (3,6,9)         NODELAY    15.0       50.0       1.00       0.250      1.000E-02  0.450         -          -      03_06_09                                
 196              (4,6,9)         NODELAY    15.0       90.0       1.00       0.250      1.000E-02  0.450         -          -      04_06_09                                
 197              (1,6,10)        NODELAY    15.0       45.0       1.00       0.250      1.000E-02  0.450         -          -      01_06_10                                
 198              (2,6,10)        NODELAY    15.0       70.0       1.00       0.250      1.000E-02  0.450         -          -      02_06_10                                
 199              (3,6,10)        NODELAY    15.0       50.0       1.00       0.250      1.000E-02  0.450         -          -      03_06_10                                
 200              (4,6,10)        NODELAY    15.0       90.0       1.00       0.250      1.000E-02  0.450         -          -      04_06_10                                
 201              (1,6,11)        NODELAY    15.0       45.0       1.00       0.250      1.000E-02  0.450         -          -      01_06_11                                
 202              (2,6,11)        NODELAY    15.0       70.0       1.00       0.250      1.000E-02  0.450         -          -      02_06_11                                
 203              (3,6,11)        NODELAY    15.0       50.0       1.00       0.250      1.000E-02  0.450         -          -      03_06_11                                
 204              (4,6,11)        NODELAY    15.0       90.0       1.00       0.250      1.000E-02  0.450         -          -      04_06_11                                
 205              (1,6,12)        NODELAY    15.0       45.0       1.00       0.250      1.000E-02  0.450         -          -      01_06_12                                
 206              (2,6,12)        NODELAY    15.0       70.0       1.00       0.250      1.000E-02  0.450         -          -      02_06_12                                
 207              (3,6,12)        NODELAY    15.0       50.0       1.00       0.250      1.000E-02  0.450         -          -      03_06_12                                
 208              (4,6,12)        NODELAY    15.0       90.0       1.00       0.250      1.000E-02  0.450         -          -      04_06_12                                
 209              (1,6,13)        NODELAY    15.0       45.0       1.00       0.250      1.000E-02  0.450         -          -      01_06_13                                
 210              (2,6,13)        NODELAY    15.0       70.0       1.00       0.250      1.000E-02  0.450         -          -      02_06_13                                
 211              (3,6,13)        NODELAY    15.0       50.0       1.00       0.250      1.000E-02  0.450         -          -      03_06_13                                
 212              (4,6,13)        NODELAY    15.0       90.0       1.00       0.250      1.000E-02  0.450         -          -      04_06_13                                
 213              (1,6,14)        NODELAY    15.0       45.0       1.00       0.250      1.000E-02  0.450         -          -      01_06_14                                
 214              (2,6,14)        NODELAY    15.0       70.0       1.00       0.250      1.000E-02  0.450         -          -      02_06_14                                
 215              (3,6,14)        NODELAY    15.0       50.0       1.00       0.250      1.000E-02  0.450         -          -      03_06_14                                
 216              (4,6,14)        NODELAY    15.0       90.0       1.00       0.250      1.000E-02  0.450         -          -      04_06_14                                
 217              (1,7,2)         NODELAY    15.0       45.0       1.00       0.250      1.000E-02  0.450         -          -      01_07_02                                
 218              (2,7,2)         NODELAY    15.0       70.0       1.00       0.250      1.000E-02  0.450         -          -      02_07_02                                
 219              (3,7,2)         NODELAY    15.0       50.0       1.00       0.250      1.000E-02  0.450         -          -      03_07_02                                
 220              (4,7,2)         NODELAY    15.0       90.0       1.00       0.250      1.000E-02  0.450         -          -      04_07_02                                
 221              (1,7,3)         NODELAY    15.0       45.0       1.00       0.250      1.000E-02  0.450         -          -      01_07_03                                
 222              (2,7,3)         NODELAY    15.0       70.0       1.00       0.250      1.000E-02  0.450         -          -      02_07_03                                
 223              (3,7,3)         NODELAY    15.0       50.0       1.00       0.250      1.000E-02  0.450         -          -      03_07_03                                
 224              (4,7,3)         NODELAY    15.0       90.0       1.00       0.250      1.000E-02  0.450         -          -      04_07_03                                
 225              (1,7,4)         NODELAY    15.0       45.0       1.00       0.250      1.000E-02  0.450         -          -      01_07_04                                
 226              (2,7,4)         NODELAY    15.0       70.0       1.00       0.250      1.000E-02  0.450         -          -      02_07_04                                
 227              (3,7,4)         NODELAY    15.0       50.0       1.00       0.250      1.000E-02  0.450         -          -      03_07_04                                
 228              (4,7,4)         NODELAY    15.0       90.0       1.00       0.250      1.000E-02  0.450         -          -      04_07_04                                
 229              (1,7,5)         NODELAY    15.0       45.0       1.00       0.250      1.000E-02  0.450         -          -      01_07_05                                
 230              (2,7,5)         NODELAY    15.0       70.0       1.00       0.250      1.000E-02  0.450         -          -      02_07_05                                
 231              (3,7,5)         NODELAY    15.0       50.0       1.00       0.250      1.000E-02  0.450         -          -      03_07_05                                
 232              (4,7,5)         NODELAY    15.0       90.0       1.00       0.250      1.000E-02  0.450         -          -      04_07_05                                
 233              (1,7,6)         NODELAY    15.0       45.0       1.00       0.250      1.000E-02  0.450         -          -      01_07_06                                
 234              (2,7,6)         NODELAY    15.0       70.0       1.00       0.250      1.000E-02  0.450         -          -      02_07_06                                
 235              (3,7,6)         NODELAY    15.0       50.0       1.00       0.250      1.000E-02  0.450         -          -      03_07_06                                
 236              (4,7,6)         NODELAY    15.0       90.0       1.00       0.250      1.000E-02  0.450         -          -      04_07_06                                
 237              (1,7,7)         NODELAY    15.0       45.0       1.00       0.250      1.000E-02  0.450         -          -      01_07_07                                
 238              (2,7,7)         NODELAY    15.0       70.0       1.00       0.250      1.000E-02  0.450         -          -      02_07_07                                
 239              (3,7,7)         NODELAY    15.0       50.0       1.00       0.250      1.000E-02  0.450         -          -      03_07_07                                
 240              (4,7,7)         NODELAY    15.0       90.0       1.00       0.250      1.000E-02  0.450         -          -      04_07_07                                
 241              (1,7,8)         NODELAY    15.0       45.0       1.00       0.250      1.000E-02  0.450         -          -      01_07_08                                
 242              (2,7,8)         NODELAY    15.0       70.0       1.00       0.250      1.000E-02  0.450         -          -      02_07_08                                
 243              (3,7,8)         NODELAY    15.0       50.0       1.00       0.250      1.000E-02  0.450         -          -      03_07_08                                
 244              (4,7,8)         NODELAY    15.0       90.0       1.00       0.250      1.000E-02  0.450         -          -      04_07_08                                
 245              (1,7,9)         NODELAY    15.0       45.0       1.00       0.250      1.000E-02  0.450         -          -      01_07_09                                
 246              (2,7,9)         NODELAY    15.0       70.0       1.00       0.250      1.000E-02  0.450         -          -      02_07_09                                
 247              (3,7,9)         NODELAY    15.0       50.0       1.00       0.250      1.000E-02  0.450         -          -      03_07_09                                
 248              (4,7,9)         NODELAY    15.0       90.0       1.00       0.250      1.000E-02  0.450         -          -      04_07_09                                
 249              (1,7,10)        NODELAY    15.0       45.0       1.00       0.250      1.000E-02  0.450         -          -      01_07_10                                
 250              (2,7,10)        NODELAY    15.0       70.0       1.00       0.250      1.000E-02  0.450         -          -      02_07_10                                
 251              (3,7,10)        NODELAY    15.0       50.0       1.00       0.250      1.000E-02  0.450         -          -      03_07_10                                
 252              (4,7,10)        NODELAY    15.0       90.0       1.00       0.250      1.000E-02  0.450         -          -      04_07_10                                
 253              (1,7,11)        NODELAY    15.0       45.0       1.00       0.250      1.000E-02  0.450         -          -      01_07_11                                
 254              (2,7,11)        NODELAY    15.0       70.0       1.00       0.250      1.000E-02  0.450         -          -      02_07_11                                
 255              (3,7,11)        NODELAY    15.0       50.0       1.00       0.250      1.000E-02  0.450         -          -      03_07_11                                
 256              (4,7,11)        NODELAY    15.0       90.0       1.00       0.250      1.000E-02  0.450         -          -      04_07_11                                
 257              (1,7,12)        NODELAY    15.0       45.0       1.00       0.250      1.000E-02  0.450         -          -      01_07_12                                
 258              (2,7,12)        NODELAY    15.0       70.0       1.00       0.250      1.000E-02  0.450         -          -      02_07_12                                
 259              (3,7,12)        NODELAY    15.0       50.0       1.00       0.250      1.000E-02  0.450         -          -      03_07_12                                
 260              (4,7,12)        NODELAY    15.0       90.0       1.00       0.250      1.000E-02  0.450         -          -      04_07_12                                
 261              (1,7,13)        NODELAY    15.0       45.0       1.00       0.250      1.000E-02  0.450         -          -      01_07_13                                
 262              (2,7,13)        NODELAY    15.0       70.0       1.00       0.250      1.000E-02  0.450         -          -      02_07_13                                
 263              (3,7,13)        NODELAY    15.0       50.0       1.00       0.250      1.000E-02  0.450         -          -      03_07_13                                
 264              (4,7,13)        NODELAY    15.0       90.0       1.00       0.250      1.000E-02  0.450         -          -      04_07_13                                
 265              (1,7,14)        NODELAY    15.0       45.0       1.00       0.250      1.000E-02  0.450         -          -      01_07_14                                
 266              (2,7,14)        NODELAY    15.0       70.0       1.00       0.250      1.000E-02  0.450         -          -      02_07_14                                
 267              (3,7,14)        NODELAY    15.0       50.0       1.00       0.250      1.000E-02  0.450         -          -      03_07_14                                
 268              (4,7,14)        NODELAY    15.0       90.0       1.00       0.250      1.000E-02  0.450         -          -      04_07_14                                
 269              (1,8,2)         NODELAY    15.0       45.0       1.00       0.250      1.000E-02  0.450         -          -      01_08_02                                
 270              (2,8,2)         NODELAY    15.0       70.0       1.00       0.250      1.000E-02  0.450         -          -      02_08_02                                
 271              (3,8,2)         NODELAY    15.0       50.0       1.00       0.250      1.000E-02  0.450         -          -      03_08_02                                
 272              (4,8,2)         NODELAY    15.0       90.0       1.00       0.250      1.000E-02  0.450         -          -      04_08_02                                
 273              (1,8,3)         NODELAY    15.0       45.0       1.00       0.250      1.000E-02  0.450         -          -      01_08_03                                
 274              (2,8,3)         NODELAY    15.0       70.0       1.00       0.250      1.000E-02  0.450         -          -      02_08_03                                
 275              (3,8,3)         NODELAY    15.0       50.0       1.00       0.250      1.000E-02  0.450         -          -      03_08_03                                
 276              (4,8,3)         NODELAY    15.0       90.0       1.00       0.250      1.000E-02  0.450         -          -      04_08_03                                
 277              (1,8,4)         NODELAY    15.0       45.0       1.00       0.250      1.000E-02  0.450         -          -      01_08_04                                
 278              (2,8,4)         NODELAY    15.0       70.0       1.00       0.250      1.000E-02  0.450         -          -      02_08_04                                
 279              (3,8,4)         NODELAY    15.0       50.0       1.00       0.250      1.000E-02  0.450         -          -      03_08_04                                
 280              (4,8,4)         NODELAY    15.0       90.0       1.00       0.250      1.000E-02  0.450         -          -      04_08_04                                
 281              (1,8,5)         NODELAY    15.0       45.0       1.00       0.250      1.000E-02  0.450         -          -      01_08_05                                
 282              (2,8,5)         NODELAY    15.0       70.0       1.00       0.250      1.000E-02  0.450         -          -      02_08_05                                
 283              (3,8,5)         NODELAY    15.0       50.0       1.00       0.250      1.000E-02  0.450         -          -      03_08_05                                
 284              (4,8,5)         NODELAY    15.0       90.0       1.00       0.250      1.000E-02  0.450         -          -      04_08_05                                
 285              (1,8,6)         NODELAY    15.0       45.0       1.00       0.250      1.000E-02  0.450         -          -      01_08_06                                
 286              (2,8,6)         NODELAY    15.0       70.0       1.00       0.250      1.000E-02  0.450         -          -      02_08_06                                
 287              (3,8,6)         NODELAY    15.0       50.0       1.00       0.250      1.000E-02  0.450         -          -      03_08_06                                
 288              (4,8,6)         NODELAY    15.0       90.0       1.00       0.250      1.000E-02  0.450         -          -      04_08_06                                
 289              (1,8,7)         NODELAY    15.0       45.0       1.00       0.250      1.000E-02  0.450         -          -      01_08_07                                
 290              (2,8,7)         NODELAY    15.0       70.0       1.00       0.250      1.000E-02  0.450         -          -      02_08_07                                
 291              (3,8,7)         NODELAY    15.0       50.0       1.00       0.250      1.000E-02  0.450         -          -      03_08_07                                
 292              (4,8,7)         NODELAY    15.0       90.0       1.00       0.250      1.000E-02  0.450         -          -      04_08_07                                
 293              (1,8,8)         NODELAY    15.0       45.0       1.00       0.250      1.000E-02  0.450         -          -      01_08_08                                
 294              (2,8,8)         NODELAY    15.0       70.0       1.00       0.250      1.000E-02  0.450         -          -      02_08_08                                
 295              (3,8,8)         NODELAY    15.0       50.0       1.00       0.250      1.000E-02  0.450         -          -      03_08_08                                
 296              (4,8,8)         NODELAY    15.0       90.0       1.00       0.250      1.000E-02  0.450         -          -      04_08_08                                
 297              (1,8,9)         NODELAY    15.0       45.0       1.00       0.250      1.000E-02  0.450         -          -      01_08_09                                
 298              (2,8,9)         NODELAY    15.0       70.0       1.00       0.250      1.000E-02  0.450         -          -      02_08_09                                
 299              (3,8,9)         NODELAY    15.0       50.0       1.00       0.250      1.000E-02  0.450         -          -      03_08_09                                
 300              (4,8,9)         NODELAY    15.0       90.0       1.00       0.250      1.000E-02  0.450         -          -      04_08_09                                
 301              (1,8,10)        NODELAY    15.0       45.0       1.00       0.250      1.000E-02  0.450         -          -      01_08_10                                
 302              (2,8,10)        NODELAY    15.0       70.0       1.00       0.250      1.000E-02  0.450         -          -      02_08_10                                
 303              (3,8,10)        NODELAY    15.0       50.0       1.00       0.250      1.000E-02  0.450         -          -      03_08_10                                
 304              (4,8,10)        NODELAY    15.0       90.0       1.00       0.250      1.000E-02  0.450         -          -      04_08_10                                
 305              (1,8,11)        NODELAY    15.0       45.0       1.00       0.250      1.000E-02  0.450         -          -      01_08_11                                
 306              (2,8,11)        NODELAY    15.0       70.0       1.00       0.250      1.000E-02  0.450         -          -      02_08_11                                
 307              (3,8,11)        NODELAY    15.0       50.0       1.00       0.250      1.000E-02  0.450         -          -      03_08_11                                
 308              (4,8,11)        NODELAY    15.0       90.0       1.00       0.250      1.000E-02  0.450         -          -      04_08_11                                
 309              (1,8,12)        NODELAY    15.0       45.0       1.00       0.250      1.000E-02  0.450         -          -      01_08_12                                
 310              (2,8,12)        NODELAY    15.0       70.0       1.00       0.250      1.000E-02  0.450         -          -      02_08_12                                
 311              (3,8,12)        NODELAY    15.0       50.0       1.00       0.250      1.000E-02  0.450         -          -      03_08_12                                
 312              (4,8,12)        NODELAY    15.0       90.0       1.00       0.250      1.000E-02  0.450         -          -      04_08_12                                
 313              (1,8,13)        NODELAY    15.0       45.0       1.00       0.250      1.000E-02  0.450         -          -      01_08_13                                
 314              (2,8,13)        NODELAY    15.0       70.0       1.00       0.250      1.000E-02  0.450         -          -      02_08_13                                
 315              (3,8,13)        NODELAY    15.0       50.0       1.00       0.250      1.000E-02  0.450         -          -      03_08_13                                
 316              (4,8,13)        NODELAY    15.0       90.0       1.00       0.250      1.000E-02  0.450         -          -      04_08_13                                
 317              (1,8,14)        NODELAY    15.0       45.0       1.00       0.250      1.000E-02  0.450         -          -      01_08_14                                
 318              (2,8,14)        NODELAY    15.0       70.0       1.00       0.250      1.000E-02  0.450         -          -      02_08_14                                
 319              (3,8,14)        NODELAY    15.0       50.0       1.00       0.250      1.000E-02  0.450         -          -      03_08_14                                
 320              (4,8,14)        NODELAY    15.0       90.0       1.00       0.250      1.000E-02  0.450         -          -      04_08_14                                
 321              (1,9,1)         NODELAY    15.0       45.0       1.00       0.250      1.000E-02  0.450         -          -      01_09_01                                
 322              (2,9,1)         NODELAY    15.0       70.0       1.00       0.250      1.000E-02  0.450         -          -      02_09_01                                
 323              (3,9,1)         NODELAY    15.0       50.0       1.00       0.250      1.000E-02  0.450         -          -      03_09_01                                
 324              (4,9,1)         NODELAY    15.0       90.0       1.00       0.250      1.000E-02  0.450         -          -      04_09_01                                
 325              (1,9,2)         NODELAY    15.0       45.0       1.00       0.250      1.000E-02  0.450         -          -      01_09_02                                
[...]

 HEAD WILL BE SAVED ON UNIT 1021 AT END OF TIME STEP   57, STRESS PERIOD    3


  VOLUME BUDGET FOR ENTIRE MODEL AT END OF TIME STEP   57, STRESS PERIOD   3
  ---------------------------------------------------------------------------------------------------

     CUMULATIVE VOLUME      L**3       RATES FOR THIS TIME STEP      L**3/T          PACKAGE NAME    
     ------------------                 ------------------------                     ----------------

           IN:                                      IN:
           ---                                      ---
              STO-SS =           0.0000                STO-SS =           0.0000     STORAGE                          
              STO-SY =  3316945614.0279                STO-SY =         771.4685     STORAGE                          
      CSUB-CGELASTIC =     9034711.2607        CSUB-CGELASTIC =          34.0639     CSUB                             
        CSUB-ELASTIC =    23217843.6921          CSUB-ELASTIC =           5.1146     CSUB                             
      CSUB-INELASTIC =     6317392.7041        CSUB-INELASTIC =           0.0000     CSUB                             
      CSUB-WATERCOMP =    11848907.0918        CSUB-WATERCOMP =           2.5597     CSUB                             
                 WEL =           0.0000                   WEL =           0.0000     WEL_0                            
                 RCH =  1692276300.0000                   RCH =       39600.0000     RCH_0                            
                 CHD =           0.0000                   CHD =           0.0000     CHD_0                            

            TOTAL IN =  5059640768.7767              TOTAL IN =       40413.2068

          OUT:                                     OUT:
          ----                                     ----
              STO-SS =           0.0000                STO-SS =           0.0000     STORAGE                          
              STO-SY =   602904402.4391                STO-SY =       14093.5188     STORAGE                          
      CSUB-CGELASTIC =     8773076.2969        CSUB-CGELASTIC =          33.0831     CSUB                             
        CSUB-ELASTIC =     3834127.5150          CSUB-ELASTIC =          90.1384     CSUB                             
      CSUB-INELASTIC =           0.0000        CSUB-INELASTIC =           0.0000     CSUB                             
      CSUB-WATERCOMP =     2144397.9746        CSUB-WATERCOMP =          48.8597     CSUB                             
                 WEL =  3155760000.0000                   WEL =           0.0000     WEL_0                            
                 RCH =           0.0000                   RCH =           0.0000     RCH_0                            
                 CHD =  1286224764.5450                   CHD =       26147.6069     CHD_0                            

           TOTAL OUT =  5059640768.7706             TOTAL OUT =       40413.2068

            IN - OUT =       6.0282E-03              IN - OUT =       2.0240E-07

 PERCENT DISCREPANCY =           0.00     PERCENT DISCREPANCY =           0.00




         TIME SUMMARY AT END OF TIME STEP   57 IN STRESS PERIOD    3
                    SECONDS     MINUTES      HOURS       DAYS        YEARS
                    -----------------------------------------------------------
   TIME STEP LENGTH 3.15576E+07 5.25960E+05  8766.0      365.25      1.0000    
 STRESS PERIOD TIME 1.79878E+09 2.99797E+07 4.99662E+05  20819.      57.000    
         TOTAL TIME 3.69224E+09 6.15373E+07 1.02562E+06  42734.      117.00    


end timestep


start timestep kper="3" kstp="58" mode="normal"

 UBDSV1 SAVING           STO-SS ON UNIT   1020 AT TIME STEP     58, STRESS PERIOD      3
 UBDSV1 SAVING           STO-SY ON UNIT   1020 AT TIME STEP     58, STRESS PERIOD      3
 UBDSV1 SAVING     FLOW-JA-FACE ON UNIT   1020 AT TIME STEP     58, STRESS PERIOD      3
 UBDSV06 SAVING       DATA-SPDIS IN MODEL EX-GWF-CSUB-P04  PACKAGE NPF             CONNECTED TO MODEL EX-GWF-CSUB-P04  PACKAGE NPF              ON UNIT   1020 AT TIME STEP     58, STRESS PERIOD      3
 UBDSV1 SAVING  CSUB-CGELASTIC  ON UNIT   1020 AT TIME STEP     58, STRESS PERIOD      3
 UBDSV06 SAVING    CSUB-ELASTIC  IN MODEL EX-GWF-CSUB-P04  PACKAGE EX-GWF-CSUB-P04 CONNECTED TO MODEL EX-GWF-CSUB-P04  PACKAGE CSUB             ON UNIT   1020 AT TIME STEP     58, STRESS PERIOD      3
 UBDSV06 SAVING  CSUB-INELASTIC  IN MODEL EX-GWF-CSUB-P04  PACKAGE EX-GWF-CSUB-P04 CONNECTED TO MODEL EX-GWF-CSUB-P04  PACKAGE CSUB             ON UNIT   1020 AT TIME STEP     58, STRESS PERIOD      3
 UBDSV1 SAVING  CSUB-WATERCOMP  ON UNIT   1020 AT TIME STEP     58, STRESS PERIOD      3
 UBDSV06 SAVING              WEL IN MODEL EX-GWF-CSUB-P04  PACKAGE EX-GWF-CSUB-P04 CONNECTED TO MODEL EX-GWF-CSUB-P04  PACKAGE WEL_0            ON UNIT   1020 AT TIME STEP     58, STRESS PERIOD      3
 UBDSV06 SAVING              RCH IN MODEL EX-GWF-CSUB-P04  PACKAGE EX-GWF-CSUB-P04 CONNECTED TO MODEL EX-GWF-CSUB-P04  PACKAGE RCH_0            ON UNIT   1020 AT TIME STEP     58, STRESS PERIOD      3
 UBDSV06 SAVING              CHD IN MODEL EX-GWF-CSUB-P04  PACKAGE EX-GWF-CSUB-P04 CONNECTED TO MODEL EX-GWF-CSUB-P04  PACKAGE CHD_0            ON UNIT   1020 AT TIME STEP     58, STRESS PERIOD      3

 HEAD WILL BE SAVED ON UNIT 1021 AT END OF TIME STEP   58, STRESS PERIOD    3


  VOLUME BUDGET FOR ENTIRE MODEL AT END OF TIME STEP   58, STRESS PERIOD   3
  ---------------------------------------------------------------------------------------------------

     CUMULATIVE VOLUME      L**3       RATES FOR THIS TIME STEP      L**3/T          PACKAGE NAME    
     ------------------                 ------------------------                     ----------------

           IN:                                      IN:
           ---                                      ---
              STO-SS =           0.0000                STO-SS =           0.0000     STORAGE                          
              STO-SY =  3317198059.6509                STO-SY =         691.1584     STORAGE                          
      CSUB-CGELASTIC =     9046987.7486        CSUB-CGELASTIC =          33.6112     CSUB                             
        CSUB-ELASTIC =    23219512.9161          CSUB-ELASTIC =           4.5701     CSUB                             
      CSUB-INELASTIC =     6317392.7041        CSUB-INELASTIC =           0.0000     CSUB                             
      CSUB-WATERCOMP =    11849742.1636        CSUB-WATERCOMP =           2.2863     CSUB                             
                 WEL =           0.0000                   WEL =           0.0000     WEL_0                            
                 RCH =  1706740200.0000                   RCH =       39600.0000     RCH_0                            
                 CHD =           0.0000                   CHD =           0.0000     CHD_0                            

            TOTAL IN =  5074371895.1832              TOTAL IN =       40331.6260

          OUT:                                     OUT:
          ----                                     ----
              STO-SS =           0.0000                STO-SS =           0.0000     STORAGE                          
              STO-SY =   608008224.2345                STO-SY =       13973.5025     STORAGE                          
      CSUB-CGELASTIC =     8785003.0076        CSUB-CGELASTIC =          32.6536     CSUB                             
        CSUB-ELASTIC =     3866794.2343          CSUB-ELASTIC =          89.4366     CSUB                             
      CSUB-INELASTIC =           0.0000        CSUB-INELASTIC =           0.0000     CSUB                             
      CSUB-WATERCOMP =     2162098.3584        CSUB-WATERCOMP =          48.4610     CSUB                             
                 WEL =  3155760000.0000                   WEL =           0.0000     WEL_0                            
                 RCH =           0.0000                   RCH =           0.0000     RCH_0                            
                 CHD =  1295789775.3423                   CHD =       26187.5723     CHD_0                            

           TOTAL OUT =  5074371895.1772             TOTAL OUT =       40331.6260

            IN - OUT =       6.0654E-03              IN - OUT =       1.0266E-07

 PERCENT DISCREPANCY =           0.00     PERCENT DISCREPANCY =           0.00




         TIME SUMMARY AT END OF TIME STEP   58 IN STRESS PERIOD    3
                    SECONDS     MINUTES      HOURS       DAYS        YEARS
                    -----------------------------------------------------------
   TIME STEP LENGTH 3.15576E+07 5.25960E+05  8766.0      365.25      1.0000    
 STRESS PERIOD TIME 1.83034E+09 3.05057E+07 5.08428E+05  21184.      58.000    
         TOTAL TIME 3.72380E+09 6.20633E+07 1.03439E+06  43100.      118.00    


end timestep


start timestep kper="3" kstp="59" mode="normal"

 UBDSV1 SAVING           STO-SS ON UNIT   1020 AT TIME STEP     59, STRESS PERIOD      3
 UBDSV1 SAVING           STO-SY ON UNIT   1020 AT TIME STEP     59, STRESS PERIOD      3
 UBDSV1 SAVING     FLOW-JA-FACE ON UNIT   1020 AT TIME STEP     59, STRESS PERIOD      3
 UBDSV06 SAVING       DATA-SPDIS IN MODEL EX-GWF-CSUB-P04  PACKAGE NPF             CONNECTED TO MODEL EX-GWF-CSUB-P04  PACKAGE NPF              ON UNIT   1020 AT TIME STEP     59, STRESS PERIOD      3
 UBDSV1 SAVING  CSUB-CGELASTIC  ON UNIT   1020 AT TIME STEP     59, STRESS PERIOD      3
 UBDSV06 SAVING    CSUB-ELASTIC  IN MODEL EX-GWF-CSUB-P04  PACKAGE EX-GWF-CSUB-P04 CONNECTED TO MODEL EX-GWF-CSUB-P04  PACKAGE CSUB             ON UNIT   1020 AT TIME STEP     59, STRESS PERIOD      3
 UBDSV06 SAVING  CSUB-INELASTIC  IN MODEL EX-GWF-CSUB-P04  PACKAGE EX-GWF-CSUB-P04 CONNECTED TO MODEL EX-GWF-CSUB-P04  PACKAGE CSUB             ON UNIT   1020 AT TIME STEP     59, STRESS PERIOD      3
 UBDSV1 SAVING  CSUB-WATERCOMP  ON UNIT   1020 AT TIME STEP     59, STRESS PERIOD      3
 UBDSV06 SAVING              WEL IN MODEL EX-GWF-CSUB-P04  PACKAGE EX-GWF-CSUB-P04 CONNECTED TO MODEL EX-GWF-CSUB-P04  PACKAGE WEL_0            ON UNIT   1020 AT TIME STEP     59, STRESS PERIOD      3
 UBDSV06 SAVING              RCH IN MODEL EX-GWF-CSUB-P04  PACKAGE EX-GWF-CSUB-P04 CONNECTED TO MODEL EX-GWF-CSUB-P04  PACKAGE RCH_0            ON UNIT   1020 AT TIME STEP     59, STRESS PERIOD      3
 UBDSV06 SAVING              CHD IN MODEL EX-GWF-CSUB-P04  PACKAGE EX-GWF-CSUB-P04 CONNECTED TO MODEL EX-GWF-CSUB-P04  PACKAGE CHD_0            ON UNIT   1020 AT TIME STEP     59, STRESS PERIOD      3

 HEAD WILL BE SAVED ON UNIT 1021 AT END OF TIME STEP   59, STRESS PERIOD    3


  VOLUME BUDGET FOR ENTIRE MODEL AT END OF TIME STEP   59, STRESS PERIOD   3
  ---------------------------------------------------------------------------------------------------

     CUMULATIVE VOLUME      L**3       RATES FOR THIS TIME STEP      L**3/T          PACKAGE NAME    
     ------------------                 ------------------------                     ----------------

           IN:                                      IN:
           ---                                      ---
              STO-SS =           0.0000                STO-SS =           0.0000     STORAGE                          
              STO-SY =  3317422672.3770                STO-SY =         614.9561     STORAGE                          
      CSUB-CGELASTIC =     9059105.9216        CSUB-CGELASTIC =          33.1777     CSUB                             
        CSUB-ELASTIC =    23220994.9333          CSUB-ELASTIC =           4.0575     CSUB                             
      CSUB-INELASTIC =     6317392.7041        CSUB-INELASTIC =           0.0000     CSUB                             
      CSUB-WATERCOMP =    11850483.3325        CSUB-WATERCOMP =           2.0292     CSUB                             
                 WEL =           0.0000                   WEL =           0.0000     WEL_0                            
                 RCH =  1721204100.0000                   RCH =       39600.0000     RCH_0                            
                 CHD =           0.0000                   CHD =           0.0000     CHD_0                            

            TOTAL IN =  5089074749.2685              TOTAL IN =       40254.2206

          OUT:                                     OUT:
          ----                                     ----
              STO-SS =           0.0000                STO-SS =           0.0000     STORAGE                          
              STO-SY =   613069750.1064                STO-SY =       13857.7026     STORAGE                          
      CSUB-CGELASTIC =     8796779.6890        CSUB-CGELASTIC =          32.2428     CSUB                             
        CSUB-ELASTIC =     3899215.5971          CSUB-ELASTIC =          88.7649     CSUB                             
      CSUB-INELASTIC =           0.0000        CSUB-INELASTIC =           0.0000     CSUB                             
      CSUB-WATERCOMP =     2179659.1323        CSUB-WATERCOMP =          48.0788     CSUB                             
                 WEL =  3155760000.0000                   WEL =           0.0000     WEL_0                            
                 RCH =           0.0000                   RCH =           0.0000     RCH_0                            
                 CHD =  1305369344.7377                   CHD =       26227.4316     CHD_0                            

           TOTAL OUT =  5089074749.2625             TOTAL OUT =       40254.2206

            IN - OUT =       6.0720E-03              IN - OUT =       1.7040E-08

 PERCENT DISCREPANCY =           0.00     PERCENT DISCREPANCY =           0.00




         TIME SUMMARY AT END OF TIME STEP   59 IN STRESS PERIOD    3
                    SECONDS     MINUTES      HOURS       DAYS        YEARS
                    -----------------------------------------------------------
   TIME STEP LENGTH 3.15576E+07 5.25960E+05  8766.0      365.25      1.0000    
 STRESS PERIOD TIME 1.86190E+09 3.10316E+07 5.17194E+05  21550.      59.000    
         TOTAL TIME 3.75535E+09 6.25892E+07 1.04315E+06  43465.      119.00    


end timestep


start timestep kper="3" kstp="60" mode="normal"

 UBDSV1 SAVING           STO-SS ON UNIT   1020 AT TIME STEP     60, STRESS PERIOD      3
 UBDSV1 SAVING           STO-SY ON UNIT   1020 AT TIME STEP     60, STRESS PERIOD      3
 UBDSV1 SAVING     FLOW-JA-FACE ON UNIT   1020 AT TIME STEP     60, STRESS PERIOD      3
 UBDSV06 SAVING       DATA-SPDIS IN MODEL EX-GWF-CSUB-P04  PACKAGE NPF             CONNECTED TO MODEL EX-GWF-CSUB-P04  PACKAGE NPF              ON UNIT   1020 AT TIME STEP     60, STRESS PERIOD      3
 UBDSV1 SAVING  CSUB-CGELASTIC  ON UNIT   1020 AT TIME STEP     60, STRESS PERIOD      3
 UBDSV06 SAVING    CSUB-ELASTIC  IN MODEL EX-GWF-CSUB-P04  PACKAGE EX-GWF-CSUB-P04 CONNECTED TO MODEL EX-GWF-CSUB-P04  PACKAGE CSUB             ON UNIT   1020 AT TIME STEP     60, STRESS PERIOD      3
 UBDSV06 SAVING  CSUB-INELASTIC  IN MODEL EX-GWF-CSUB-P04  PACKAGE EX-GWF-CSUB-P04 CONNECTED TO MODEL EX-GWF-CSUB-P04  PACKAGE CSUB             ON UNIT   1020 AT TIME STEP     60, STRESS PERIOD      3
 UBDSV1 SAVING  CSUB-WATERCOMP  ON UNIT   1020 AT TIME STEP     60, STRESS PERIOD      3
 UBDSV06 SAVING              WEL IN MODEL EX-GWF-CSUB-P04  PACKAGE EX-GWF-CSUB-P04 CONNECTED TO MODEL EX-GWF-CSUB-P04  PACKAGE WEL_0            ON UNIT   1020 AT TIME STEP     60, STRESS PERIOD      3
 UBDSV06 SAVING              RCH IN MODEL EX-GWF-CSUB-P04  PACKAGE EX-GWF-CSUB-P04 CONNECTED TO MODEL EX-GWF-CSUB-P04  PACKAGE RCH_0            ON UNIT   1020 AT TIME STEP     60, STRESS PERIOD      3
 UBDSV06 SAVING              CHD IN MODEL EX-GWF-CSUB-P04  PACKAGE EX-GWF-CSUB-P04 CONNECTED TO MODEL EX-GWF-CSUB-P04  PACKAGE CHD_0            ON UNIT   1020 AT TIME STEP     60, STRESS PERIOD      3

 HEAD WILL BE SAVED ON UNIT 1021 AT END OF TIME STEP   60, STRESS PERIOD    3


  VOLUME BUDGET FOR ENTIRE MODEL AT END OF TIME STEP   60, STRESS PERIOD   3
  ---------------------------------------------------------------------------------------------------

     CUMULATIVE VOLUME      L**3       RATES FOR THIS TIME STEP      L**3/T          PACKAGE NAME    
     ------------------                 ------------------------                     ----------------

           IN:                                      IN:
           ---                                      ---
              STO-SS =           0.0000                STO-SS =           0.0000     STORAGE                          
              STO-SY =  3317622088.1285                STO-SY =         545.9706     STORAGE                          
      CSUB-CGELASTIC =     9071076.6741        CSUB-CGELASTIC =          32.7741     CSUB                             
        CSUB-ELASTIC =    23222305.5811          CSUB-ELASTIC =           3.5884     CSUB                             
      CSUB-INELASTIC =     6317392.7041        CSUB-INELASTIC =           0.0000     CSUB                             
      CSUB-WATERCOMP =    11851138.5099        CSUB-WATERCOMP =           1.7938     CSUB                             
                 WEL =           0.0000                   WEL =           0.0000     WEL_0                            
                 RCH =  1735668000.0000                   RCH =       39600.0000     RCH_0                            
                 CHD =           0.0000                   CHD =           0.0000     CHD_0                            

            TOTAL IN =  5103752001.5976              TOTAL IN =       40184.1268

          OUT:                                     OUT:
          ----                                     ----
              STO-SS =           0.0000                STO-SS =           0.0000     STORAGE                          
              STO-SY =   618091663.2128                STO-SY =       13749.2488     STORAGE                          
      CSUB-CGELASTIC =     8808417.0566        CSUB-CGELASTIC =          31.8614     CSUB                             
        CSUB-ELASTIC =     3931406.8094          CSUB-ELASTIC =          88.1347     CSUB                             
      CSUB-INELASTIC =           0.0000        CSUB-INELASTIC =           0.0000     CSUB                             
      CSUB-WATERCOMP =     2197088.2732        CSUB-WATERCOMP =          47.7184     CSUB                             
                 WEL =  3155760000.0000                   WEL =           0.0000     WEL_0                            
                 RCH =           0.0000                   RCH =           0.0000     RCH_0                            
                 CHD =  1314963426.2394                   CHD =       26267.1636     CHD_0                            

           TOTAL OUT =  5103752001.5915             TOTAL OUT =       40184.1268

            IN - OUT =       6.0616E-03              IN - OUT =      -2.7052E-08

 PERCENT DISCREPANCY =           0.00     PERCENT DISCREPANCY =          -0.00




         TIME SUMMARY AT END OF TIME STEP   60 IN STRESS PERIOD    3
                    SECONDS     MINUTES      HOURS       DAYS        YEARS
                    -----------------------------------------------------------
   TIME STEP LENGTH 3.15576E+07 5.25960E+05  8766.0      365.25      1.0000    
 STRESS PERIOD TIME 1.89346E+09 3.15576E+07 5.25960E+05  21915.      60.000    
         TOTAL TIME 3.78691E+09 6.31152E+07 1.05192E+06  43830.      120.00    


end timestep


 PERCENT COMPACTION WAS LESS THAN 1 PERCENT IN ALL INTERBEDS

 COARSE-GRAINED STORAGE PERCENT COMPACTION WAS LESS THAN 1 PERCENT IN ALL CELLS
