                                   MODFLOW 6
                U.S. GEOLOGICAL SURVEY MODULAR HYDROLOGIC MODEL
                       GROUNDWATER TRANSPORT MODEL (GWT)
                        VERSION 6.4.1 Release 12/09/2022

   MODFLOW 6 compiled Dec 09 2022 18:18:37 with Intel(R) Fortran Intel(R) 64
   Compiler Classic for applications running on Intel(R) 64, Version 2021.7.0
                             Build 20220726_000000

This software has been approved for release by the U.S. Geological 
Survey (USGS). Although the software has been subjected to rigorous 
review, the USGS reserves the right to update the software as needed 
pursuant to further analysis and review. No warranty, expressed or 
implied, is made by the USGS or the U.S. Government as to the 
functionality of the software and related material nor shall the 
fact of release constitute any such warranty. Furthermore, the 
software is released on condition that neither the USGS nor the U.S. 
Government shall be held liable for any damages resulting from its 
authorized or unauthorized use. Also refer to the USGS Water 
Resources Software User Rights Notice for complete use, copyright, 
and distribution information.


As a work of the United States Government, this USGS product is 
in the public domain within the United States. You can copy, 
modify, distribute, and perform the work, even for commercial 
purposes, all without asking permission. Additionally, USGS 
waives copyright and related rights in the work worldwide 
through CC0 1.0 Universal Public Domain Dedication 
(https://creativecommons.org/publicdomain/zero/1.0/).

The following GNU Lesser General Public License (LGPL) libraries
are used in this USGS product:

    SPARSKIT version 2.0
      ilut, luson, and qsplit 
      (https://www-users.cse.umn.edu/~saad/software/SPARSKIT/)

    RCM - Reverse Cuthill McKee Ordering
      (https://people.math.sc.edu/Burkardt/f_src/rcm/rcm.html)

    BLAS - Basic Linear Algebra Subprograms Level 1
      (https://people.math.sc.edu/Burkardt/f_src/blas1_d/blas1_d.html)

    SPARSEKIT - Sparse Matrix Utility Package
      amux, dperm, dvperm, rperm, and cperm
      (https://people.sc.fsu.edu/~jburkardt/f77_src/sparsekit/sparsekit.html)

The following BSD-3 License libraries are used in this USGS product:

    Modern Fortran DAG Library
      Copyright (c) 2018, Jacob Williams
      All rights reserved.
      (https://github.com/jacobwilliams/daglib)

MODFLOW 6 compiler options: /Isrc\libmf6core.a.p /Isrc /I..\src
/Isrc\libmf6_external.a.p /MTd /nologo /warn:general /warn:truncated_source
/stand:f08 /Zi /traceback /O2 /fpe:0 /heap-arrays:0 /traceback /fpp
/Qdiag-disable:7416 /Qdiag-disable:7025 /Qdiag-disable:5268
/Fdsrc\libmf6core.a.p\Utilities_compilerversion.F90.pdb
/module:src\libmf6core.a.p
/Fosrc/libmf6core.a.p/Utilities_compilerversion.F90.obj /c

System command used to initiate simulation:
..\..\..\bin\mf6.exe

MODFLOW was compiled using uniform precision.

Real Variables
  KIND: 8
  TINY (smallest non-zero value):    2.225074-308
  HUGE (largest value):    1.797693+308
  PRECISION: 15
  SIZE IN BITS: 64

Integer Variables
  KIND: 4
  HUGE (largest value): 2147483647
  SIZE IN BITS: 32

Long Integer Variables
  KIND: 8
  HUGE (largest value): 9223372036854775807
  SIZE IN BITS: 64

Logical Variables
  KIND: 4
  SIZE IN BITS: 32
 

 OPENED trans.dis
 FILE TYPE:DIS6                   UNIT 1005   STATUS:OLD                 
 FORMAT:FORMATTED              ACCESS:SEQUENTIAL          
 ACTION:READ                


 OPENED trans.ic
 FILE TYPE:IC6                    UNIT 1006   STATUS:OLD                 
 FORMAT:FORMATTED              ACCESS:SEQUENTIAL          
 ACTION:READ                


 OPENED trans.mst
 FILE TYPE:MST6                   UNIT 1007   STATUS:OLD                 
 FORMAT:FORMATTED              ACCESS:SEQUENTIAL          
 ACTION:READ                


 OPENED trans.adv
 FILE TYPE:ADV6                   UNIT 1008   STATUS:OLD                 
 FORMAT:FORMATTED              ACCESS:SEQUENTIAL          
 ACTION:READ                


 OPENED trans.dsp
 FILE TYPE:DSP6                   UNIT 1009   STATUS:OLD                 
 FORMAT:FORMATTED              ACCESS:SEQUENTIAL          
 ACTION:READ                


 OPENED trans.fmi
 FILE TYPE:FMI6                   UNIT 1010   STATUS:OLD                 
 FORMAT:FORMATTED              ACCESS:SEQUENTIAL          
 ACTION:READ                


 OPENED trans.ssm
 FILE TYPE:SSM6                   UNIT 1011   STATUS:OLD                 
 FORMAT:FORMATTED              ACCESS:SEQUENTIAL          
 ACTION:READ                


 OPENED trans.obs
 FILE TYPE:OBS6                   UNIT 1012   STATUS:OLD                 
 FORMAT:FORMATTED              ACCESS:SEQUENTIAL          
 ACTION:READ                


 OPENED trans.oc
 FILE TYPE:OC6                    UNIT 1013   STATUS:OLD                 
 FORMAT:FORMATTED              ACCESS:SEQUENTIAL          
 ACTION:READ                

 NAMEFILE OPTIONS:
    FLOWS WILL BE SAVED TO BUDGET FILE SPECIFIED IN OUTPUT CONTROL

 DIS -- STRUCTURED GRID DISCRETIZATION PACKAGE, VERSION 2 : 3/27/2014 - INPUT READ FROM UNIT 1005

 Loading input for TRANS/DIS
 # File generated by Flopy version 3.3.6 on 12/07/2022 at 20:40:46.
   NLAY = 1
   NROW = 1
   NCOL = 122
   DELR = .1000000000000000
   DELC = .1000000000000000
   TOP = 1.000000000000000
   BOTM = .000000000000000
 Loading input complete...


 DSP-- DISPERSION PACKAGE, VERSION 1, 1/24/2018 INPUT READ FROM UNIT 1009


 Loading input for TRANS/DSP
 # File generated by Flopy version 3.3.6 on 12/07/2022 at 20:40:46.
   XT3D_OFF = 1
   ALH = .1000000000000000
   ATH1 = .1000000000000000
 Loading input complete...

 Setting Discretization Options
    Model length unit [0=UND, 1=FEET, 2=METERS, 3=CENTIMETERS] set as 0
 End Setting Discretization Options

 Setting Discretization Dimensions
    NLAY = 1
    NROW = 1
    NCOL = 122
 End Setting Discretization Dimensions

 Setting Discretization Griddata
    DELR set from input file
    DELC set from input file
    TOP set from input file
    BOTM set from input file
 End Setting Discretization Griddata


 FMI -- FLOW MODEL INTERFACE, VERSION 1, 8/29/2017 INPUT READ FROM UNIT 1010


 # File generated by Flopy version 3.3.6 on 12/07/2022 at 20:40:46.
 PROCESSING FMI OPTIONS
 END OF FMI OPTIONS
 PROCESSING FMI PACKAGEDATA

 OPENED ../mf6gwf/flow.hds
 FILE TYPE:DATA(BINARY)   UNIT 1015   STATUS:UNKNOWN             
 FORMAT:UNFORMATTED            ACCESS:STREAM              
 ACTION:READWRITE           

Reading binary file to determine number of records per time step.
Detected 1 unique records in binary file.

 OPENED ../mf6gwf/flow.bud
 FILE TYPE:DATA(BINARY)   UNIT 1016   STATUS:UNKNOWN             
 FORMAT:UNFORMATTED            ACCESS:STREAM              
 ACTION:READWRITE           

Reading budget file to determine number of terms per time step.
    120.000        FLOW-JA-FACE                 
    120.000          DATA-SPDIS NPF             
    120.000            DATA-SAT NPF             
    120.000                 WEL WEL-1           
    120.000                 CHD CHD_0           
Detected 5 unique flow terms in budget file.
 END OF FMI PACKAGEDATA

 ADV-- ADVECTION PACKAGE, VERSION 1, 8/25/2017 INPUT READ FROM UNIT 1008


 # File generated by Flopy version 3.3.6 on 12/07/2022 at 20:40:46.
 PROCESSING ADVECTION OPTIONS
    ADVECTION WEIGHTING SCHEME HAS BEEN SET TO: TVD
 END OF ADVECTION OPTIONS
 Setting DSP Options
    XT3D formulation [0=INACTIVE, 1=ACTIVE, 3=ACTIVE RHS] set to: 0
 End Setting DSP Options

 Setting DSP Griddata
    ALH set from input file
    ATH1 set from input file
 End Setting DSP Griddata


 IC -- INITIAL CONDITIONS PACKAGE, VERSION 8, 3/28/2015 INPUT READ FROM UNIT 1006
 # File generated by Flopy version 3.3.6 on 12/07/2022 at 20:40:46.
 PROCESSING GRIDDATA

 INITIAL CONCENTRATION =   0.000000    
 END PROCESSING GRIDDATA

 MST -- MOBILE STORAGE AND TRANSFER PACKAGE, VERSION 1, 7/29/2020 INPUT READ FROM UNIT 1007


 # File generated by Flopy version 3.3.6 on 12/07/2022 at 20:40:46.
 PROCESSING MOBILE STORAGE AND TRANSFER OPTIONS
 END OF MOBILE STORAGE AND TRANSFER OPTIONS
 PROCESSING GRIDDATA

   MOBILE DOMAIN POROSITY =  0.1000000    
 END PROCESSING GRIDDATA

 SSM -- SOURCE-SINK MIXING PACKAGE, VERSION 1, 8/25/2017 INPUT READ FROM UNIT 1011


 # File generated by Flopy version 3.3.6 on 12/07/2022 at 20:40:46.
 PROCESSING SSM OPTIONS
 END OF SSM OPTIONS
 PROCESSING SOURCES
 AUX SOURCE DETECTED.
    USING AUX COLUMN 1 IN PACKAGE WEL-1
 END PROCESSING SOURCES
 OPTIONAL FILEINPUT BLOCK NOT FOUND.  CONTINUING.

The observation utility is active for "TRANS"
 # File generated by Flopy version 3.3.6 on 12/07/2022 at 20:40:46.

Processing observation options:

Text output number of digits of precision set to: 10
The PRINT_INPUT option has been specified.


 OBSERVATIONS READ FROM FILE "trans.obs"
 ----------------------------------------------------------------------------------------------------------------------------------------------------------------------------------------------------------------------------
 NAME                                     TYPE                                       TIME         LOCATION DATA                              OUTPUT FILENAME                                                                 
 ----------------------------------------------------------------------------------------------------------------------------------------------------------------------------------------------------------------------------
 X005                                     CONTINUOUS  CONCENTRATION                  ALL TIMES    "  1 1 1"                                  trans.obs.csv                                                                   
 X405                                     CONTINUOUS  CONCENTRATION                  ALL TIMES    "  1 1 41"                                 trans.obs.csv                                                                   
 X1105                                    CONTINUOUS  CONCENTRATION                  ALL TIMES    "  1 1 111"                                trans.obs.csv                                                                   
 ----------------------------------------------------------------------------------------------------------------------------------------------------------------------------------------------------------------------------


      THE LAST TIME STEP WILL BE PRINTED
      THE LAST TIME STEP WILL BE PRINTED
 # File generated by Flopy version 3.3.6 on 12/07/2022 at 20:40:46.

 PROCESSING OC OPTIONS

    BUDGET INFORMATION WILL BE WRITTEN TO:
      UNIT NUMBER: 1018
      FILE NAME: trans.cbc

 OPENED trans.cbc
 FILE TYPE:DATA(BINARY)   UNIT 1018   STATUS:REPLACE             
 FORMAT:UNFORMATTED            ACCESS:STREAM              
 ACTION:READWRITE           

    CONCENTRATION INFORMATION WILL BE WRITTEN TO:
      UNIT NUMBER: 1019
      FILE NAME: trans.ucn

 OPENED trans.ucn
 FILE TYPE:DATA(BINARY)   UNIT 1019   STATUS:REPLACE             
 FORMAT:UNFORMATTED            ACCESS:STREAM              
 ACTION:READWRITE           

 END OF OC OPTIONS

start timestep kper="1" kstp="1" mode="normal"


 BEGIN READING OUTPUT CONTROL FOR STRESS PERIOD 1
      ALL TIME STEPS WILL BE SAVED
      THE LAST TIME STEP WILL BE SAVED
      THE LAST TIME STEP WILL BE PRINTED
      THE LAST TIME STEP WILL BE PRINTED

 END READING OUTPUT CONTROL FOR STRESS PERIOD 1

 FMI READING BUDGET TERMS FOR KSTP 1 KPER 1
    120.000        FLOW-JA-FACE                 
    120.000          DATA-SPDIS NPF             
    120.000            DATA-SAT NPF             
    120.000                 WEL WEL-1           
    120.000                 CHD CHD_0           

 FMI READING HEAD FOR KSTP 1 KPER 1

 CONCENTRATION WILL BE SAVED ON UNIT 1019 AT END OF TIME STEP    1, STRESS PERIOD    1

end timestep


start timestep kper="1" kstp="2" mode="normal"


 FMI SETTING BUDGET TERMS FOR KSTP 2 AND KPER 1 TO BUDGET FILE TERMS FROM KSTP 1 AND KPER 1

 FMI SETTING HEAD FOR KSTP 2 AND KPER 1 TO BINARY FILE HEADS FROM KSTP 1 AND KPER 1

 CONCENTRATION WILL BE SAVED ON UNIT 1019 AT END OF TIME STEP    2, STRESS PERIOD    1

end timestep


start timestep kper="1" kstp="3" mode="normal"


 FMI SETTING BUDGET TERMS FOR KSTP 3 AND KPER 1 TO BUDGET FILE TERMS FROM KSTP 1 AND KPER 1

 FMI SETTING HEAD FOR KSTP 3 AND KPER 1 TO BINARY FILE HEADS FROM KSTP 1 AND KPER 1

 CONCENTRATION WILL BE SAVED ON UNIT 1019 AT END OF TIME STEP    3, STRESS PERIOD    1

end timestep


start timestep kper="1" kstp="4" mode="normal"


 FMI SETTING BUDGET TERMS FOR KSTP 4 AND KPER 1 TO BUDGET FILE TERMS FROM KSTP 1 AND KPER 1

 FMI SETTING HEAD FOR KSTP 4 AND KPER 1 TO BINARY FILE HEADS FROM KSTP 1 AND KPER 1

 CONCENTRATION WILL BE SAVED ON UNIT 1019 AT END OF TIME STEP    4, STRESS PERIOD    1

end timestep


start timestep kper="1" kstp="5" mode="normal"


 FMI SETTING BUDGET TERMS FOR KSTP 5 AND KPER 1 TO BUDGET FILE TERMS FROM KSTP 1 AND KPER 1

 FMI SETTING HEAD FOR KSTP 5 AND KPER 1 TO BINARY FILE HEADS FROM KSTP 1 AND KPER 1

 CONCENTRATION WILL BE SAVED ON UNIT 1019 AT END OF TIME STEP    5, STRESS PERIOD    1

end timestep


start timestep kper="1" kstp="6" mode="normal"


 FMI SETTING BUDGET TERMS FOR KSTP 6 AND KPER 1 TO BUDGET FILE TERMS FROM KSTP 1 AND KPER 1

 FMI SETTING HEAD FOR KSTP 6 AND KPER 1 TO BINARY FILE HEADS FROM KSTP 1 AND KPER 1

 CONCENTRATION WILL BE SAVED ON UNIT 1019 AT END OF TIME STEP    6, STRESS PERIOD    1

end timestep


start timestep kper="1" kstp="7" mode="normal"


 FMI SETTING BUDGET TERMS FOR KSTP 7 AND KPER 1 TO BUDGET FILE TERMS FROM KSTP 1 AND KPER 1

 FMI SETTING HEAD FOR KSTP 7 AND KPER 1 TO BINARY FILE HEADS FROM KSTP 1 AND KPER 1

 CONCENTRATION WILL BE SAVED ON UNIT 1019 AT END OF TIME STEP    7, STRESS PERIOD    1

end timestep


start timestep kper="1" kstp="8" mode="normal"


 FMI SETTING BUDGET TERMS FOR KSTP 8 AND KPER 1 TO BUDGET FILE TERMS FROM KSTP 1 AND KPER 1

 FMI SETTING HEAD FOR KSTP 8 AND KPER 1 TO BINARY FILE HEADS FROM KSTP 1 AND KPER 1

 CONCENTRATION WILL BE SAVED ON UNIT 1019 AT END OF TIME STEP    8, STRESS PERIOD    1

end timestep


start timestep kper="1" kstp="9" mode="normal"


 FMI SETTING BUDGET TERMS FOR KSTP 9 AND KPER 1 TO BUDGET FILE TERMS FROM KSTP 1 AND KPER 1

 FMI SETTING HEAD FOR KSTP 9 AND KPER 1 TO BINARY FILE HEADS FROM KSTP 1 AND KPER 1

 CONCENTRATION WILL BE SAVED ON UNIT 1019 AT END OF TIME STEP    9, STRESS PERIOD    1

end timestep


start timestep kper="1" kstp="10" mode="normal"


 FMI SETTING BUDGET TERMS FOR KSTP 10 AND KPER 1 TO BUDGET FILE TERMS FROM KSTP 1 AND KPER 1

 FMI SETTING HEAD FOR KSTP 10 AND KPER 1 TO BINARY FILE HEADS FROM KSTP 1 AND KPER 1

 CONCENTRATION WILL BE SAVED ON UNIT 1019 AT END OF TIME STEP   10, STRESS PERIOD    1

end timestep


start timestep kper="1" kstp="11" mode="normal"


 FMI SETTING BUDGET TERMS FOR KSTP 11 AND KPER 1 TO BUDGET FILE TERMS FROM KSTP 1 AND KPER 1

 FMI SETTING HEAD FOR KSTP 11 AND KPER 1 TO BINARY FILE HEADS FROM KSTP 1 AND KPER 1

 CONCENTRATION WILL BE SAVED ON UNIT 1019 AT END OF TIME STEP   11, STRESS PERIOD    1

end timestep


start timestep kper="1" kstp="12" mode="normal"


 FMI SETTING BUDGET TERMS FOR KSTP 12 AND KPER 1 TO BUDGET FILE TERMS FROM KSTP 1 AND KPER 1

 FMI SETTING HEAD FOR KSTP 12 AND KPER 1 TO BINARY FILE HEADS FROM KSTP 1 AND KPER 1

 CONCENTRATION WILL BE SAVED ON UNIT 1019 AT END OF TIME STEP   12, STRESS PERIOD    1

end timestep


start timestep kper="1" kstp="13" mode="normal"


 FMI SETTING BUDGET TERMS FOR KSTP 13 AND KPER 1 TO BUDGET FILE TERMS FROM KSTP 1 AND KPER 1

 FMI SETTING HEAD FOR KSTP 13 AND KPER 1 TO BINARY FILE HEADS FROM KSTP 1 AND KPER 1

 CONCENTRATION WILL BE SAVED ON UNIT 1019 AT END OF TIME STEP   13, STRESS PERIOD    1

end timestep


start timestep kper="1" kstp="14" mode="normal"


 FMI SETTING BUDGET TERMS FOR KSTP 14 AND KPER 1 TO BUDGET FILE TERMS FROM KSTP 1 AND KPER 1

 FMI SETTING HEAD FOR KSTP 14 AND KPER 1 TO BINARY FILE HEADS FROM KSTP 1 AND KPER 1

 CONCENTRATION WILL BE SAVED ON UNIT 1019 AT END OF TIME STEP   14, STRESS PERIOD    1

end timestep


start timestep kper="1" kstp="15" mode="normal"


 FMI SETTING BUDGET TERMS FOR KSTP 15 AND KPER 1 TO BUDGET FILE TERMS FROM KSTP 1 AND KPER 1

 FMI SETTING HEAD FOR KSTP 15 AND KPER 1 TO BINARY FILE HEADS FROM KSTP 1 AND KPER 1

 CONCENTRATION WILL BE SAVED ON UNIT 1019 AT END OF TIME STEP   15, STRESS PERIOD    1

end timestep


start timestep kper="1" kstp="16" mode="normal"


 FMI SETTING BUDGET TERMS FOR KSTP 16 AND KPER 1 TO BUDGET FILE TERMS FROM KSTP 1 AND KPER 1

 FMI SETTING HEAD FOR KSTP 16 AND KPER 1 TO BINARY FILE HEADS FROM KSTP 1 AND KPER 1

 CONCENTRATION WILL BE SAVED ON UNIT 1019 AT END OF TIME STEP   16, STRESS PERIOD    1

end timestep


start timestep kper="1" kstp="17" mode="normal"


 FMI SETTING BUDGET TERMS FOR KSTP 17 AND KPER 1 TO BUDGET FILE TERMS FROM KSTP 1 AND KPER 1

 FMI SETTING HEAD FOR KSTP 17 AND KPER 1 TO BINARY FILE HEADS FROM KSTP 1 AND KPER 1

 CONCENTRATION WILL BE SAVED ON UNIT 1019 AT END OF TIME STEP   17, STRESS PERIOD    1

end timestep


start timestep kper="1" kstp="18" mode="normal"


 FMI SETTING BUDGET TERMS FOR KSTP 18 AND KPER 1 TO BUDGET FILE TERMS FROM KSTP 1 AND KPER 1

 FMI SETTING HEAD FOR KSTP 18 AND KPER 1 TO BINARY FILE HEADS FROM KSTP 1 AND KPER 1

 CONCENTRATION WILL BE SAVED ON UNIT 1019 AT END OF TIME STEP   18, STRESS PERIOD    1

end timestep


start timestep kper="1" kstp="19" mode="normal"


 FMI SETTING BUDGET TERMS FOR KSTP 19 AND KPER 1 TO BUDGET FILE TERMS FROM KSTP 1 AND KPER 1

 FMI SETTING HEAD FOR KSTP 19 AND KPER 1 TO BINARY FILE HEADS FROM KSTP 1 AND KPER 1

 CONCENTRATION WILL BE SAVED ON UNIT 1019 AT END OF TIME STEP   19, STRESS PERIOD    1

end timestep


start timestep kper="1" kstp="20" mode="normal"


 FMI SETTING BUDGET TERMS FOR KSTP 20 AND KPER 1 TO BUDGET FILE TERMS FROM KSTP 1 AND KPER 1

 FMI SETTING HEAD FOR KSTP 20 AND KPER 1 TO BINARY FILE HEADS FROM KSTP 1 AND KPER 1

 CONCENTRATION WILL BE SAVED ON UNIT 1019 AT END OF TIME STEP   20, STRESS PERIOD    1

end timestep


start timestep kper="1" kstp="21" mode="normal"


 FMI SETTING BUDGET TERMS FOR KSTP 21 AND KPER 1 TO BUDGET FILE TERMS FROM KSTP 1 AND KPER 1

 FMI SETTING HEAD FOR KSTP 21 AND KPER 1 TO BINARY FILE HEADS FROM KSTP 1 AND KPER 1

 CONCENTRATION WILL BE SAVED ON UNIT 1019 AT END OF TIME STEP   21, STRESS PERIOD    1

end timestep


start timestep kper="1" kstp="22" mode="normal"


 FMI SETTING BUDGET TERMS FOR KSTP 22 AND KPER 1 TO BUDGET FILE TERMS FROM KSTP 1 AND KPER 1

 FMI SETTING HEAD FOR KSTP 22 AND KPER 1 TO BINARY FILE HEADS FROM KSTP 1 AND KPER 1

 CONCENTRATION WILL BE SAVED ON UNIT 1019 AT END OF TIME STEP   22, STRESS PERIOD    1

end timestep


start timestep kper="1" kstp="23" mode="normal"


 FMI SETTING BUDGET TERMS FOR KSTP 23 AND KPER 1 TO BUDGET FILE TERMS FROM KSTP 1 AND KPER 1

 FMI SETTING HEAD FOR KSTP 23 AND KPER 1 TO BINARY FILE HEADS FROM KSTP 1 AND KPER 1

 CONCENTRATION WILL BE SAVED ON UNIT 1019 AT END OF TIME STEP   23, STRESS PERIOD    1

end timestep


start timestep kper="1" kstp="24" mode="normal"


 FMI SETTING BUDGET TERMS FOR KSTP 24 AND KPER 1 TO BUDGET FILE TERMS FROM KSTP 1 AND KPER 1

 FMI SETTING HEAD FOR KSTP 24 AND KPER 1 TO BINARY FILE HEADS FROM KSTP 1 AND KPER 1

 CONCENTRATION WILL BE SAVED ON UNIT 1019 AT END OF TIME STEP   24, STRESS PERIOD    1

end timestep


start timestep kper="1" kstp="25" mode="normal"


 FMI SETTING BUDGET TERMS FOR KSTP 25 AND KPER 1 TO BUDGET FILE TERMS FROM KSTP 1 AND KPER 1

 FMI SETTING HEAD FOR KSTP 25 AND KPER 1 TO BINARY FILE HEADS FROM KSTP 1 AND KPER 1

 CONCENTRATION WILL BE SAVED ON UNIT 1019 AT END OF TIME STEP   25, STRESS PERIOD    1

end timestep


start timestep kper="1" kstp="26" mode="normal"


 FMI SETTING BUDGET TERMS FOR KSTP 26 AND KPER 1 TO BUDGET FILE TERMS FROM KSTP 1 AND KPER 1

 FMI SETTING HEAD FOR KSTP 26 AND KPER 1 TO BINARY FILE HEADS FROM KSTP 1 AND KPER 1

 CONCENTRATION WILL BE SAVED ON UNIT 1019 AT END OF TIME STEP   26, STRESS PERIOD    1

end timestep


start timestep kper="1" kstp="27" mode="normal"


 FMI SETTING BUDGET TERMS FOR KSTP 27 AND KPER 1 TO BUDGET FILE TERMS FROM KSTP 1 AND KPER 1

 FMI SETTING HEAD FOR KSTP 27 AND KPER 1 TO BINARY FILE HEADS FROM KSTP 1 AND KPER 1

 CONCENTRATION WILL BE SAVED ON UNIT 1019 AT END OF TIME STEP   27, STRESS PERIOD    1

end timestep


start timestep kper="1" kstp="28" mode="normal"


 FMI SETTING BUDGET TERMS FOR KSTP 28 AND KPER 1 TO BUDGET FILE TERMS FROM KSTP 1 AND KPER 1

 FMI SETTING HEAD FOR KSTP 28 AND KPER 1 TO BINARY FILE HEADS FROM KSTP 1 AND KPER 1

 CONCENTRATION WILL BE SAVED ON UNIT 1019 AT END OF TIME STEP   28, STRESS PERIOD    1

end timestep


start timestep kper="1" kstp="29" mode="normal"


 FMI SETTING BUDGET TERMS FOR KSTP 29 AND KPER 1 TO BUDGET FILE TERMS FROM KSTP 1 AND KPER 1

 FMI SETTING HEAD FOR KSTP 29 AND KPER 1 TO BINARY FILE HEADS FROM KSTP 1 AND KPER 1

 CONCENTRATION WILL BE SAVED ON UNIT 1019 AT END OF TIME STEP   29, STRESS PERIOD    1

end timestep


start timestep kper="1" kstp="30" mode="normal"


 FMI SETTING BUDGET TERMS FOR KSTP 30 AND KPER 1 TO BUDGET FILE TERMS FROM KSTP 1 AND KPER 1

 FMI SETTING HEAD FOR KSTP 30 AND KPER 1 TO BINARY FILE HEADS FROM KSTP 1 AND KPER 1

 CONCENTRATION WILL BE SAVED ON UNIT 1019 AT END OF TIME STEP   30, STRESS PERIOD    1

end timestep


start timestep kper="1" kstp="31" mode="normal"


 FMI SETTING BUDGET TERMS FOR KSTP 31 AND KPER 1 TO BUDGET FILE TERMS FROM KSTP 1 AND KPER 1

 FMI SETTING HEAD FOR KSTP 31 AND KPER 1 TO BINARY FILE HEADS FROM KSTP 1 AND KPER 1

 CONCENTRATION WILL BE SAVED ON UNIT 1019 AT END OF TIME STEP   31, STRESS PERIOD    1

end timestep


start timestep kper="1" kstp="32" mode="normal"


 FMI SETTING BUDGET TERMS FOR KSTP 32 AND KPER 1 TO BUDGET FILE TERMS FROM KSTP 1 AND KPER 1

 FMI SETTING HEAD FOR KSTP 32 AND KPER 1 TO BINARY FILE HEADS FROM KSTP 1 AND KPER 1

 CONCENTRATION WILL BE SAVED ON UNIT 1019 AT END OF TIME STEP   32, STRESS PERIOD    1

end timestep


start timestep kper="1" kstp="33" mode="normal"


 FMI SETTING BUDGET TERMS FOR KSTP 33 AND KPER 1 TO BUDGET FILE TERMS FROM KSTP 1 AND KPER 1

 FMI SETTING HEAD FOR KSTP 33 AND KPER 1 TO BINARY FILE HEADS FROM KSTP 1 AND KPER 1

 CONCENTRATION WILL BE SAVED ON UNIT 1019 AT END OF TIME STEP   33, STRESS PERIOD    1

end timestep


start timestep kper="1" kstp="34" mode="normal"


 FMI SETTING BUDGET TERMS FOR KSTP 34 AND KPER 1 TO BUDGET FILE TERMS FROM KSTP 1 AND KPER 1

 FMI SETTING HEAD FOR KSTP 34 AND KPER 1 TO BINARY FILE HEADS FROM KSTP 1 AND KPER 1

 CONCENTRATION WILL BE SAVED ON UNIT 1019 AT END OF TIME STEP   34, STRESS PERIOD    1

end timestep


start timestep kper="1" kstp="35" mode="normal"


 FMI SETTING BUDGET TERMS FOR KSTP 35 AND KPER 1 TO BUDGET FILE TERMS FROM KSTP 1 AND KPER 1

 FMI SETTING HEAD FOR KSTP 35 AND KPER 1 TO BINARY FILE HEADS FROM KSTP 1 AND KPER 1

 CONCENTRATION WILL BE SAVED ON UNIT 1019 AT END OF TIME STEP   35, STRESS PERIOD    1

end timestep


start timestep kper="1" kstp="36" mode="normal"


 FMI SETTING BUDGET TERMS FOR KSTP 36 AND KPER 1 TO BUDGET FILE TERMS FROM KSTP 1 AND KPER 1

 FMI SETTING HEAD FOR KSTP 36 AND KPER 1 TO BINARY FILE HEADS FROM KSTP 1 AND KPER 1

 CONCENTRATION WILL BE SAVED ON UNIT 1019 AT END OF TIME STEP   36, STRESS PERIOD    1

end timestep


start timestep kper="1" kstp="37" mode="normal"


 FMI SETTING BUDGET TERMS FOR KSTP 37 AND KPER 1 TO BUDGET FILE TERMS FROM KSTP 1 AND KPER 1

 FMI SETTING HEAD FOR KSTP 37 AND KPER 1 TO BINARY FILE HEADS FROM KSTP 1 AND KPER 1

 CONCENTRATION WILL BE SAVED ON UNIT 1019 AT END OF TIME STEP   37, STRESS PERIOD    1

end timestep


start timestep kper="1" kstp="38" mode="normal"


 FMI SETTING BUDGET TERMS FOR KSTP 38 AND KPER 1 TO BUDGET FILE TERMS FROM KSTP 1 AND KPER 1

 FMI SETTING HEAD FOR KSTP 38 AND KPER 1 TO BINARY FILE HEADS FROM KSTP 1 AND KPER 1

 CONCENTRATION WILL BE SAVED ON UNIT 1019 AT END OF TIME STEP   38, STRESS PERIOD    1

end timestep


start timestep kper="1" kstp="39" mode="normal"


 FMI SETTING BUDGET TERMS FOR KSTP 39 AND KPER 1 TO BUDGET FILE TERMS FROM KSTP 1 AND KPER 1

 FMI SETTING HEAD FOR KSTP 39 AND KPER 1 TO BINARY FILE HEADS FROM KSTP 1 AND KPER 1

 CONCENTRATION WILL BE SAVED ON UNIT 1019 AT END OF TIME STEP   39, STRESS PERIOD    1

end timestep


start timestep kper="1" kstp="40" mode="normal"


 FMI SETTING BUDGET TERMS FOR KSTP 40 AND KPER 1 TO BUDGET FILE TERMS FROM KSTP 1 AND KPER 1

 FMI SETTING HEAD FOR KSTP 40 AND KPER 1 TO BINARY FILE HEADS FROM KSTP 1 AND KPER 1

 CONCENTRATION WILL BE SAVED ON UNIT 1019 AT END OF TIME STEP   40, STRESS PERIOD    1

end timestep


start timestep kper="1" kstp="41" mode="normal"


 FMI SETTING BUDGET TERMS FOR KSTP 41 AND KPER 1 TO BUDGET FILE TERMS FROM KSTP 1 AND KPER 1

 FMI SETTING HEAD FOR KSTP 41 AND KPER 1 TO BINARY FILE HEADS FROM KSTP 1 AND KPER 1

 CONCENTRATION WILL BE SAVED ON UNIT 1019 AT END OF TIME STEP   41, STRESS PERIOD    1

end timestep


start timestep kper="1" kstp="42" mode="normal"


 FMI SETTING BUDGET TERMS FOR KSTP 42 AND KPER 1 TO BUDGET FILE TERMS FROM KSTP 1 AND KPER 1

 FMI SETTING HEAD FOR KSTP 42 AND KPER 1 TO BINARY FILE HEADS FROM KSTP 1 AND KPER 1

 CONCENTRATION WILL BE SAVED ON UNIT 1019 AT END OF TIME STEP   42, STRESS PERIOD    1

end timestep


start timestep kper="1" kstp="43" mode="normal"


 FMI SETTING BUDGET TERMS FOR KSTP 43 AND KPER 1 TO BUDGET FILE TERMS FROM KSTP 1 AND KPER 1

 FMI SETTING HEAD FOR KSTP 43 AND KPER 1 TO BINARY FILE HEADS FROM KSTP 1 AND KPER 1

 CONCENTRATION WILL BE SAVED ON UNIT 1019 AT END OF TIME STEP   43, STRESS PERIOD    1

end timestep


start timestep kper="1" kstp="44" mode="normal"


 FMI SETTING BUDGET TERMS FOR KSTP 44 AND KPER 1 TO BUDGET FILE TERMS FROM KSTP 1 AND KPER 1

 FMI SETTING HEAD FOR KSTP 44 AND KPER 1 TO BINARY FILE HEADS FROM KSTP 1 AND KPER 1

 CONCENTRATION WILL BE SAVED ON UNIT 1019 AT END OF TIME STEP   44, STRESS PERIOD    1

end timestep


start timestep kper="1" kstp="45" mode="normal"


 FMI SETTING BUDGET TERMS FOR KSTP 45 AND KPER 1 TO BUDGET FILE TERMS FROM KSTP 1 AND KPER 1

 FMI SETTING HEAD FOR KSTP 45 AND KPER 1 TO BINARY FILE HEADS FROM KSTP 1 AND KPER 1

 CONCENTRATION WILL BE SAVED ON UNIT 1019 AT END OF TIME STEP   45, STRESS PERIOD    1

end timestep


start timestep kper="1" kstp="46" mode="normal"


 FMI SETTING BUDGET TERMS FOR KSTP 46 AND KPER 1 TO BUDGET FILE TERMS FROM KSTP 1 AND KPER 1

 FMI SETTING HEAD FOR KSTP 46 AND KPER 1 TO BINARY FILE HEADS FROM KSTP 1 AND KPER 1

 CONCENTRATION WILL BE SAVED ON UNIT 1019 AT END OF TIME STEP   46, STRESS PERIOD    1

end timestep


start timestep kper="1" kstp="47" mode="normal"


 FMI SETTING BUDGET TERMS FOR KSTP 47 AND KPER 1 TO BUDGET FILE TERMS FROM KSTP 1 AND KPER 1

 FMI SETTING HEAD FOR KSTP 47 AND KPER 1 TO BINARY FILE HEADS FROM KSTP 1 AND KPER 1

 CONCENTRATION WILL BE SAVED ON UNIT 1019 AT END OF TIME STEP   47, STRESS PERIOD    1

end timestep


start timestep kper="1" kstp="48" mode="normal"


 FMI SETTING BUDGET TERMS FOR KSTP 48 AND KPER 1 TO BUDGET FILE TERMS FROM KSTP 1 AND KPER 1

 FMI SETTING HEAD FOR KSTP 48 AND KPER 1 TO BINARY FILE HEADS FROM KSTP 1 AND KPER 1

 CONCENTRATION WILL BE SAVED ON UNIT 1019 AT END OF TIME STEP   48, STRESS PERIOD    1

end timestep


start timestep kper="1" kstp="49" mode="normal"


 FMI SETTING BUDGET TERMS FOR KSTP 49 AND KPER 1 TO BUDGET FILE TERMS FROM KSTP 1 AND KPER 1

 FMI SETTING HEAD FOR KSTP 49 AND KPER 1 TO BINARY FILE HEADS FROM KSTP 1 AND KPER 1

 CONCENTRATION WILL BE SAVED ON UNIT 1019 AT END OF TIME STEP   49, STRESS PERIOD    1

end timestep


start timestep kper="1" kstp="50" mode="normal"


 FMI SETTING BUDGET TERMS FOR KSTP 50 AND KPER 1 TO BUDGET FILE TERMS FROM KSTP 1 AND KPER 1

 FMI SETTING HEAD FOR KSTP 50 AND KPER 1 TO BINARY FILE HEADS FROM KSTP 1 AND KPER 1

 CONCENTRATION WILL BE SAVED ON UNIT 1019 AT END OF TIME STEP   50, STRESS PERIOD    1

end timestep


start timestep kper="1" kstp="51" mode="normal"


 FMI SETTING BUDGET TERMS FOR KSTP 51 AND KPER 1 TO BUDGET FILE TERMS FROM KSTP 1 AND KPER 1

 FMI SETTING HEAD FOR KSTP 51 AND KPER 1 TO BINARY FILE HEADS FROM KSTP 1 AND KPER 1

 CONCENTRATION WILL BE SAVED ON UNIT 1019 AT END OF TIME STEP   51, STRESS PERIOD    1

end timestep


start timestep kper="1" kstp="52" mode="normal"


 FMI SETTING BUDGET TERMS FOR KSTP 52 AND KPER 1 TO BUDGET FILE TERMS FROM KSTP 1 AND KPER 1

 FMI SETTING HEAD FOR KSTP 52 AND KPER 1 TO BINARY FILE HEADS FROM KSTP 1 AND KPER 1

 CONCENTRATION WILL BE SAVED ON UNIT 1019 AT END OF TIME STEP   52, STRESS PERIOD    1

end timestep


start timestep kper="1" kstp="53" mode="normal"


 FMI SETTING BUDGET TERMS FOR KSTP 53 AND KPER 1 TO BUDGET FILE TERMS FROM KSTP 1 AND KPER 1

 FMI SETTING HEAD FOR KSTP 53 AND KPER 1 TO BINARY FILE HEADS FROM KSTP 1 AND KPER 1

 CONCENTRATION WILL BE SAVED ON UNIT 1019 AT END OF TIME STEP   53, STRESS PERIOD    1

end timestep


start timestep kper="1" kstp="54" mode="normal"


 FMI SETTING BUDGET TERMS FOR KSTP 54 AND KPER 1 TO BUDGET FILE TERMS FROM KSTP 1 AND KPER 1

 FMI SETTING HEAD FOR KSTP 54 AND KPER 1 TO BINARY FILE HEADS FROM KSTP 1 AND KPER 1

 CONCENTRATION WILL BE SAVED ON UNIT 1019 AT END OF TIME STEP   54, STRESS PERIOD    1

end timestep


start timestep kper="1" kstp="55" mode="normal"


 FMI SETTING BUDGET TERMS FOR KSTP 55 AND KPER 1 TO BUDGET FILE TERMS FROM KSTP 1 AND KPER 1

 FMI SETTING HEAD FOR KSTP 55 AND KPER 1 TO BINARY FILE HEADS FROM KSTP 1 AND KPER 1

 CONCENTRATION WILL BE SAVED ON UNIT 1019 AT END OF TIME STEP   55, STRESS PERIOD    1

end timestep


start timestep kper="1" kstp="56" mode="normal"


 FMI SETTING BUDGET TERMS FOR KSTP 56 AND KPER 1 TO BUDGET FILE TERMS FROM KSTP 1 AND KPER 1

 FMI SETTING HEAD FOR KSTP 56 AND KPER 1 TO BINARY FILE HEADS FROM KSTP 1 AND KPER 1

 CONCENTRATION WILL BE SAVED ON UNIT 1019 AT END OF TIME STEP   56, STRESS PERIOD    1

end timestep


start timestep kper="1" kstp="57" mode="normal"


 FMI SETTING BUDGET TERMS FOR KSTP 57 AND KPER 1 TO BUDGET FILE TERMS FROM KSTP 1 AND KPER 1

 FMI SETTING HEAD FOR KSTP 57 AND KPER 1 TO BINARY FILE HEADS FROM KSTP 1 AND KPER 1

 CONCENTRATION WILL BE SAVED ON UNIT 1019 AT END OF TIME STEP   57, STRESS PERIOD    1

end timestep


start timestep kper="1" kstp="58" mode="normal"


 FMI SETTING BUDGET TERMS FOR KSTP 58 AND KPER 1 TO BUDGET FILE TERMS FROM KSTP 1 AND KPER 1

 FMI SETTING HEAD FOR KSTP 58 AND KPER 1 TO BINARY FILE HEADS FROM KSTP 1 AND KPER 1

 CONCENTRATION WILL BE SAVED ON UNIT 1019 AT END OF TIME STEP   58, STRESS PERIOD    1

end timestep


start timestep kper="1" kstp="59" mode="normal"


 FMI SETTING BUDGET TERMS FOR KSTP 59 AND KPER 1 TO BUDGET FILE TERMS FROM KSTP 1 AND KPER 1

 FMI SETTING HEAD FOR KSTP 59 AND KPER 1 TO BINARY FILE HEADS FROM KSTP 1 AND KPER 1

 CONCENTRATION WILL BE SAVED ON UNIT 1019 AT END OF TIME STEP   59, STRESS PERIOD    1

end timestep


start timestep kper="1" kstp="60" mode="normal"


 FMI SETTING BUDGET TERMS FOR KSTP 60 AND KPER 1 TO BUDGET FILE TERMS FROM KSTP 1 AND KPER 1

 FMI SETTING HEAD FOR KSTP 60 AND KPER 1 TO BINARY FILE HEADS FROM KSTP 1 AND KPER 1

 CONCENTRATION WILL BE SAVED ON UNIT 1019 AT END OF TIME STEP   60, STRESS PERIOD    1

end timestep


start timestep kper="1" kstp="61" mode="normal"


 FMI SETTING BUDGET TERMS FOR KSTP 61 AND KPER 1 TO BUDGET FILE TERMS FROM KSTP 1 AND KPER 1

 FMI SETTING HEAD FOR KSTP 61 AND KPER 1 TO BINARY FILE HEADS FROM KSTP 1 AND KPER 1

 CONCENTRATION WILL BE SAVED ON UNIT 1019 AT END OF TIME STEP   61, STRESS PERIOD    1

end timestep


start timestep kper="1" kstp="62" mode="normal"


 FMI SETTING BUDGET TERMS FOR KSTP 62 AND KPER 1 TO BUDGET FILE TERMS FROM KSTP 1 AND KPER 1

 FMI SETTING HEAD FOR KSTP 62 AND KPER 1 TO BINARY FILE HEADS FROM KSTP 1 AND KPER 1

 CONCENTRATION WILL BE SAVED ON UNIT 1019 AT END OF TIME STEP   62, STRESS PERIOD    1

end timestep


start timestep kper="1" kstp="63" mode="normal"


 FMI SETTING BUDGET TERMS FOR KSTP 63 AND KPER 1 TO BUDGET FILE TERMS FROM KSTP 1 AND KPER 1

 FMI SETTING HEAD FOR KSTP 63 AND KPER 1 TO BINARY FILE HEADS FROM KSTP 1 AND KPER 1

 CONCENTRATION WILL BE SAVED ON UNIT 1019 AT END OF TIME STEP   63, STRESS PERIOD    1

end timestep


start timestep kper="1" kstp="64" mode="normal"


 FMI SETTING BUDGET TERMS FOR KSTP 64 AND KPER 1 TO BUDGET FILE TERMS FROM KSTP 1 AND KPER 1

 FMI SETTING HEAD FOR KSTP 64 AND KPER 1 TO BINARY FILE HEADS FROM KSTP 1 AND KPER 1

 CONCENTRATION WILL BE SAVED ON UNIT 1019 AT END OF TIME STEP   64, STRESS PERIOD    1

end timestep


start timestep kper="1" kstp="65" mode="normal"


 FMI SETTING BUDGET TERMS FOR KSTP 65 AND KPER 1 TO BUDGET FILE TERMS FROM KSTP 1 AND KPER 1

 FMI SETTING HEAD FOR KSTP 65 AND KPER 1 TO BINARY FILE HEADS FROM KSTP 1 AND KPER 1

 CONCENTRATION WILL BE SAVED ON UNIT 1019 AT END OF TIME STEP   65, STRESS PERIOD    1

end timestep


start timestep kper="1" kstp="66" mode="normal"


 FMI SETTING BUDGET TERMS FOR KSTP 66 AND KPER 1 TO BUDGET FILE TERMS FROM KSTP 1 AND KPER 1

 FMI SETTING HEAD FOR KSTP 66 AND KPER 1 TO BINARY FILE HEADS FROM KSTP 1 AND KPER 1

 CONCENTRATION WILL BE SAVED ON UNIT 1019 AT END OF TIME STEP   66, STRESS PERIOD    1

end timestep


start timestep kper="1" kstp="67" mode="normal"


 FMI SETTING BUDGET TERMS FOR KSTP 67 AND KPER 1 TO BUDGET FILE TERMS FROM KSTP 1 AND KPER 1

 FMI SETTING HEAD FOR KSTP 67 AND KPER 1 TO BINARY FILE HEADS FROM KSTP 1 AND KPER 1

 CONCENTRATION WILL BE SAVED ON UNIT 1019 AT END OF TIME STEP   67, STRESS PERIOD    1

end timestep


start timestep kper="1" kstp="68" mode="normal"


 FMI SETTING BUDGET TERMS FOR KSTP 68 AND KPER 1 TO BUDGET FILE TERMS FROM KSTP 1 AND KPER 1

 FMI SETTING HEAD FOR KSTP 68 AND KPER 1 TO BINARY FILE HEADS FROM KSTP 1 AND KPER 1

 CONCENTRATION WILL BE SAVED ON UNIT 1019 AT END OF TIME STEP   68, STRESS PERIOD    1

end timestep


start timestep kper="1" kstp="69" mode="normal"


 FMI SETTING BUDGET TERMS FOR KSTP 69 AND KPER 1 TO BUDGET FILE TERMS FROM KSTP 1 AND KPER 1

 FMI SETTING HEAD FOR KSTP 69 AND KPER 1 TO BINARY FILE HEADS FROM KSTP 1 AND KPER 1

 CONCENTRATION WILL BE SAVED ON UNIT 1019 AT END OF TIME STEP   69, STRESS PERIOD    1

end timestep


start timestep kper="1" kstp="70" mode="normal"


 FMI SETTING BUDGET TERMS FOR KSTP 70 AND KPER 1 TO BUDGET FILE TERMS FROM KSTP 1 AND KPER 1

 FMI SETTING HEAD FOR KSTP 70 AND KPER 1 TO BINARY FILE HEADS FROM KSTP 1 AND KPER 1

 CONCENTRATION WILL BE SAVED ON UNIT 1019 AT END OF TIME STEP   70, STRESS PERIOD    1

end timestep


start timestep kper="1" kstp="71" mode="normal"


 FMI SETTING BUDGET TERMS FOR KSTP 71 AND KPER 1 TO BUDGET FILE TERMS FROM KSTP 1 AND KPER 1

 FMI SETTING HEAD FOR KSTP 71 AND KPER 1 TO BINARY FILE HEADS FROM KSTP 1 AND KPER 1

 CONCENTRATION WILL BE SAVED ON UNIT 1019 AT END OF TIME STEP   71, STRESS PERIOD    1

end timestep


start timestep kper="1" kstp="72" mode="normal"


 FMI SETTING BUDGET TERMS FOR KSTP 72 AND KPER 1 TO BUDGET FILE TERMS FROM KSTP 1 AND KPER 1

 FMI SETTING HEAD FOR KSTP 72 AND KPER 1 TO BINARY FILE HEADS FROM KSTP 1 AND KPER 1

 CONCENTRATION WILL BE SAVED ON UNIT 1019 AT END OF TIME STEP   72, STRESS PERIOD    1

end timestep


start timestep kper="1" kstp="73" mode="normal"


 FMI SETTING BUDGET TERMS FOR KSTP 73 AND KPER 1 TO BUDGET FILE TERMS FROM KSTP 1 AND KPER 1

 FMI SETTING HEAD FOR KSTP 73 AND KPER 1 TO BINARY FILE HEADS FROM KSTP 1 AND KPER 1

 CONCENTRATION WILL BE SAVED ON UNIT 1019 AT END OF TIME STEP   73, STRESS PERIOD    1

end timestep


start timestep kper="1" kstp="74" mode="normal"


 FMI SETTING BUDGET TERMS FOR KSTP 74 AND KPER 1 TO BUDGET FILE TERMS FROM KSTP 1 AND KPER 1

 FMI SETTING HEAD FOR KSTP 74 AND KPER 1 TO BINARY FILE HEADS FROM KSTP 1 AND KPER 1

 CONCENTRATION WILL BE SAVED ON UNIT 1019 AT END OF TIME STEP   74, STRESS PERIOD    1

end timestep


start timestep kper="1" kstp="75" mode="normal"


 FMI SETTING BUDGET TERMS FOR KSTP 75 AND KPER 1 TO BUDGET FILE TERMS FROM KSTP 1 AND KPER 1

 FMI SETTING HEAD FOR KSTP 75 AND KPER 1 TO BINARY FILE HEADS FROM KSTP 1 AND KPER 1

 CONCENTRATION WILL BE SAVED ON UNIT 1019 AT END OF TIME STEP   75, STRESS PERIOD    1

end timestep


start timestep kper="1" kstp="76" mode="normal"


 FMI SETTING BUDGET TERMS FOR KSTP 76 AND KPER 1 TO BUDGET FILE TERMS FROM KSTP 1 AND KPER 1

 FMI SETTING HEAD FOR KSTP 76 AND KPER 1 TO BINARY FILE HEADS FROM KSTP 1 AND KPER 1

 CONCENTRATION WILL BE SAVED ON UNIT 1019 AT END OF TIME STEP   76, STRESS PERIOD    1

end timestep


start timestep kper="1" kstp="77" mode="normal"


 FMI SETTING BUDGET TERMS FOR KSTP 77 AND KPER 1 TO BUDGET FILE TERMS FROM KSTP 1 AND KPER 1

 FMI SETTING HEAD FOR KSTP 77 AND KPER 1 TO BINARY FILE HEADS FROM KSTP 1 AND KPER 1

 CONCENTRATION WILL BE SAVED ON UNIT 1019 AT END OF TIME STEP   77, STRESS PERIOD    1

end timestep


start timestep kper="1" kstp="78" mode="normal"


 FMI SETTING BUDGET TERMS FOR KSTP 78 AND KPER 1 TO BUDGET FILE TERMS FROM KSTP 1 AND KPER 1

 FMI SETTING HEAD FOR KSTP 78 AND KPER 1 TO BINARY FILE HEADS FROM KSTP 1 AND KPER 1

 CONCENTRATION WILL BE SAVED ON UNIT 1019 AT END OF TIME STEP   78, STRESS PERIOD    1

end timestep


start timestep kper="1" kstp="79" mode="normal"


 FMI SETTING BUDGET TERMS FOR KSTP 79 AND KPER 1 TO BUDGET FILE TERMS FROM KSTP 1 AND KPER 1

 FMI SETTING HEAD FOR KSTP 79 AND KPER 1 TO BINARY FILE HEADS FROM KSTP 1 AND KPER 1

 CONCENTRATION WILL BE SAVED ON UNIT 1019 AT END OF TIME STEP   79, STRESS PERIOD    1

end timestep


start timestep kper="1" kstp="80" mode="normal"


 FMI SETTING BUDGET TERMS FOR KSTP 80 AND KPER 1 TO BUDGET FILE TERMS FROM KSTP 1 AND KPER 1

 FMI SETTING HEAD FOR KSTP 80 AND KPER 1 TO BINARY FILE HEADS FROM KSTP 1 AND KPER 1

 CONCENTRATION WILL BE SAVED ON UNIT 1019 AT END OF TIME STEP   80, STRESS PERIOD    1

end timestep


start timestep kper="1" kstp="81" mode="normal"


 FMI SETTING BUDGET TERMS FOR KSTP 81 AND KPER 1 TO BUDGET FILE TERMS FROM KSTP 1 AND KPER 1

 FMI SETTING HEAD FOR KSTP 81 AND KPER 1 TO BINARY FILE HEADS FROM KSTP 1 AND KPER 1

 CONCENTRATION WILL BE SAVED ON UNIT 1019 AT END OF TIME STEP   81, STRESS PERIOD    1

end timestep


start timestep kper="1" kstp="82" mode="normal"


 FMI SETTING BUDGET TERMS FOR KSTP 82 AND KPER 1 TO BUDGET FILE TERMS FROM KSTP 1 AND KPER 1

 FMI SETTING HEAD FOR KSTP 82 AND KPER 1 TO BINARY FILE HEADS FROM KSTP 1 AND KPER 1

 CONCENTRATION WILL BE SAVED ON UNIT 1019 AT END OF TIME STEP   82, STRESS PERIOD    1

end timestep


start timestep kper="1" kstp="83" mode="normal"


 FMI SETTING BUDGET TERMS FOR KSTP 83 AND KPER 1 TO BUDGET FILE TERMS FROM KSTP 1 AND KPER 1

 FMI SETTING HEAD FOR KSTP 83 AND KPER 1 TO BINARY FILE HEADS FROM KSTP 1 AND KPER 1

 CONCENTRATION WILL BE SAVED ON UNIT 1019 AT END OF TIME STEP   83, STRESS PERIOD    1

end timestep


start timestep kper="1" kstp="84" mode="normal"


 FMI SETTING BUDGET TERMS FOR KSTP 84 AND KPER 1 TO BUDGET FILE TERMS FROM KSTP 1 AND KPER 1

 FMI SETTING HEAD FOR KSTP 84 AND KPER 1 TO BINARY FILE HEADS FROM KSTP 1 AND KPER 1

 CONCENTRATION WILL BE SAVED ON UNIT 1019 AT END OF TIME STEP   84, STRESS PERIOD    1

end timestep


start timestep kper="1" kstp="85" mode="normal"


 FMI SETTING BUDGET TERMS FOR KSTP 85 AND KPER 1 TO BUDGET FILE TERMS FROM KSTP 1 AND KPER 1

 FMI SETTING HEAD FOR KSTP 85 AND KPER 1 TO BINARY FILE HEADS FROM KSTP 1 AND KPER 1

 CONCENTRATION WILL BE SAVED ON UNIT 1019 AT END OF TIME STEP   85, STRESS PERIOD    1

end timestep


start timestep kper="1" kstp="86" mode="normal"


 FMI SETTING BUDGET TERMS FOR KSTP 86 AND KPER 1 TO BUDGET FILE TERMS FROM KSTP 1 AND KPER 1

 FMI SETTING HEAD FOR KSTP 86 AND KPER 1 TO BINARY FILE HEADS FROM KSTP 1 AND KPER 1

 CONCENTRATION WILL BE SAVED ON UNIT 1019 AT END OF TIME STEP   86, STRESS PERIOD    1

end timestep


start timestep kper="1" kstp="87" mode="normal"


 FMI SETTING BUDGET TERMS FOR KSTP 87 AND KPER 1 TO BUDGET FILE TERMS FROM KSTP 1 AND KPER 1

 FMI SETTING HEAD FOR KSTP 87 AND KPER 1 TO BINARY FILE HEADS FROM KSTP 1 AND KPER 1

 CONCENTRATION WILL BE SAVED ON UNIT 1019 AT END OF TIME STEP   87, STRESS PERIOD    1

end timestep


start timestep kper="1" kstp="88" mode="normal"


 FMI SETTING BUDGET TERMS FOR KSTP 88 AND KPER 1 TO BUDGET FILE TERMS FROM KSTP 1 AND KPER 1

 FMI SETTING HEAD FOR KSTP 88 AND KPER 1 TO BINARY FILE HEADS FROM KSTP 1 AND KPER 1

 CONCENTRATION WILL BE SAVED ON UNIT 1019 AT END OF TIME STEP   88, STRESS PERIOD    1

end timestep


start timestep kper="1" kstp="89" mode="normal"


 FMI SETTING BUDGET TERMS FOR KSTP 89 AND KPER 1 TO BUDGET FILE TERMS FROM KSTP 1 AND KPER 1

 FMI SETTING HEAD FOR KSTP 89 AND KPER 1 TO BINARY FILE HEADS FROM KSTP 1 AND KPER 1

 CONCENTRATION WILL BE SAVED ON UNIT 1019 AT END OF TIME STEP   89, STRESS PERIOD    1

end timestep


start timestep kper="1" kstp="90" mode="normal"


 FMI SETTING BUDGET TERMS FOR KSTP 90 AND KPER 1 TO BUDGET FILE TERMS FROM KSTP 1 AND KPER 1

 FMI SETTING HEAD FOR KSTP 90 AND KPER 1 TO BINARY FILE HEADS FROM KSTP 1 AND KPER 1

 CONCENTRATION WILL BE SAVED ON UNIT 1019 AT END OF TIME STEP   90, STRESS PERIOD    1

end timestep


start timestep kper="1" kstp="91" mode="normal"


 FMI SETTING BUDGET TERMS FOR KSTP 91 AND KPER 1 TO BUDGET FILE TERMS FROM KSTP 1 AND KPER 1

 FMI SETTING HEAD FOR KSTP 91 AND KPER 1 TO BINARY FILE HEADS FROM KSTP 1 AND KPER 1

 CONCENTRATION WILL BE SAVED ON UNIT 1019 AT END OF TIME STEP   91, STRESS PERIOD    1

end timestep


start timestep kper="1" kstp="92" mode="normal"


 FMI SETTING BUDGET TERMS FOR KSTP 92 AND KPER 1 TO BUDGET FILE TERMS FROM KSTP 1 AND KPER 1

 FMI SETTING HEAD FOR KSTP 92 AND KPER 1 TO BINARY FILE HEADS FROM KSTP 1 AND KPER 1

 CONCENTRATION WILL BE SAVED ON UNIT 1019 AT END OF TIME STEP   92, STRESS PERIOD    1

end timestep


start timestep kper="1" kstp="93" mode="normal"


 FMI SETTING BUDGET TERMS FOR KSTP 93 AND KPER 1 TO BUDGET FILE TERMS FROM KSTP 1 AND KPER 1

 FMI SETTING HEAD FOR KSTP 93 AND KPER 1 TO BINARY FILE HEADS FROM KSTP 1 AND KPER 1

 CONCENTRATION WILL BE SAVED ON UNIT 1019 AT END OF TIME STEP   93, STRESS PERIOD    1

end timestep


start timestep kper="1" kstp="94" mode="normal"


 FMI SETTING BUDGET TERMS FOR KSTP 94 AND KPER 1 TO BUDGET FILE TERMS FROM KSTP 1 AND KPER 1

 FMI SETTING HEAD FOR KSTP 94 AND KPER 1 TO BINARY FILE HEADS FROM KSTP 1 AND KPER 1

 CONCENTRATION WILL BE SAVED ON UNIT 1019 AT END OF TIME STEP   94, STRESS PERIOD    1

end timestep


start timestep kper="1" kstp="95" mode="normal"


 FMI SETTING BUDGET TERMS FOR KSTP 95 AND KPER 1 TO BUDGET FILE TERMS FROM KSTP 1 AND KPER 1

 FMI SETTING HEAD FOR KSTP 95 AND KPER 1 TO BINARY FILE HEADS FROM KSTP 1 AND KPER 1

 CONCENTRATION WILL BE SAVED ON UNIT 1019 AT END OF TIME STEP   95, STRESS PERIOD    1

end timestep


start timestep kper="1" kstp="96" mode="normal"


 FMI SETTING BUDGET TERMS FOR KSTP 96 AND KPER 1 TO BUDGET FILE TERMS FROM KSTP 1 AND KPER 1

 FMI SETTING HEAD FOR KSTP 96 AND KPER 1 TO BINARY FILE HEADS FROM KSTP 1 AND KPER 1

 CONCENTRATION WILL BE SAVED ON UNIT 1019 AT END OF TIME STEP   96, STRESS PERIOD    1

end timestep


start timestep kper="1" kstp="97" mode="normal"


 FMI SETTING BUDGET TERMS FOR KSTP 97 AND KPER 1 TO BUDGET FILE TERMS FROM KSTP 1 AND KPER 1

 FMI SETTING HEAD FOR KSTP 97 AND KPER 1 TO BINARY FILE HEADS FROM KSTP 1 AND KPER 1

 CONCENTRATION WILL BE SAVED ON UNIT 1019 AT END OF TIME STEP   97, STRESS PERIOD    1

end timestep


start timestep kper="1" kstp="98" mode="normal"


 FMI SETTING BUDGET TERMS FOR KSTP 98 AND KPER 1 TO BUDGET FILE TERMS FROM KSTP 1 AND KPER 1

 FMI SETTING HEAD FOR KSTP 98 AND KPER 1 TO BINARY FILE HEADS FROM KSTP 1 AND KPER 1

 CONCENTRATION WILL BE SAVED ON UNIT 1019 AT END OF TIME STEP   98, STRESS PERIOD    1

end timestep


start timestep kper="1" kstp="99" mode="normal"


 FMI SETTING BUDGET TERMS FOR KSTP 99 AND KPER 1 TO BUDGET FILE TERMS FROM KSTP 1 AND KPER 1

 FMI SETTING HEAD FOR KSTP 99 AND KPER 1 TO BINARY FILE HEADS FROM KSTP 1 AND KPER 1

 CONCENTRATION WILL BE SAVED ON UNIT 1019 AT END OF TIME STEP   99, STRESS PERIOD    1

end timestep


start timestep kper="1" kstp="100" mode="normal"


 FMI SETTING BUDGET TERMS FOR KSTP 100 AND KPER 1 TO BUDGET FILE TERMS FROM KSTP 1 AND KPER 1

 FMI SETTING HEAD FOR KSTP 100 AND KPER 1 TO BINARY FILE HEADS FROM KSTP 1 AND KPER 1

 CONCENTRATION WILL BE SAVED ON UNIT 1019 AT END OF TIME STEP  100, STRESS PERIOD    1

end timestep


start timestep kper="1" kstp="101" mode="normal"


 FMI SETTING BUDGET TERMS FOR KSTP 101 AND KPER 1 TO BUDGET FILE TERMS FROM KSTP 1 AND KPER 1

 FMI SETTING HEAD FOR KSTP 101 AND KPER 1 TO BINARY FILE HEADS FROM KSTP 1 AND KPER 1

 CONCENTRATION WILL BE SAVED ON UNIT 1019 AT END OF TIME STEP  101, STRESS PERIOD    1

end timestep


start timestep kper="1" kstp="102" mode="normal"


 FMI SETTING BUDGET TERMS FOR KSTP 102 AND KPER 1 TO BUDGET FILE TERMS FROM KSTP 1 AND KPER 1

 FMI SETTING HEAD FOR KSTP 102 AND KPER 1 TO BINARY FILE HEADS FROM KSTP 1 AND KPER 1

 CONCENTRATION WILL BE SAVED ON UNIT 1019 AT END OF TIME STEP  102, STRESS PERIOD    1

end timestep


start timestep kper="1" kstp="103" mode="normal"


 FMI SETTING BUDGET TERMS FOR KSTP 103 AND KPER 1 TO BUDGET FILE TERMS FROM KSTP 1 AND KPER 1

 FMI SETTING HEAD FOR KSTP 103 AND KPER 1 TO BINARY FILE HEADS FROM KSTP 1 AND KPER 1

 CONCENTRATION WILL BE SAVED ON UNIT 1019 AT END OF TIME STEP  103, STRESS PERIOD    1

end timestep


start timestep kper="1" kstp="104" mode="normal"


 FMI SETTING BUDGET TERMS FOR KSTP 104 AND KPER 1 TO BUDGET FILE TERMS FROM KSTP 1 AND KPER 1

 FMI SETTING HEAD FOR KSTP 104 AND KPER 1 TO BINARY FILE HEADS FROM KSTP 1 AND KPER 1

 CONCENTRATION WILL BE SAVED ON UNIT 1019 AT END OF TIME STEP  104, STRESS PERIOD    1

end timestep


start timestep kper="1" kstp="105" mode="normal"


 FMI SETTING BUDGET TERMS FOR KSTP 105 AND KPER 1 TO BUDGET FILE TERMS FROM KSTP 1 AND KPER 1

 FMI SETTING HEAD FOR KSTP 105 AND KPER 1 TO BINARY FILE HEADS FROM KSTP 1 AND KPER 1

 CONCENTRATION WILL BE SAVED ON UNIT 1019 AT END OF TIME STEP  105, STRESS PERIOD    1

end timestep


start timestep kper="1" kstp="106" mode="normal"


 FMI SETTING BUDGET TERMS FOR KSTP 106 AND KPER 1 TO BUDGET FILE TERMS FROM KSTP 1 AND KPER 1

 FMI SETTING HEAD FOR KSTP 106 AND KPER 1 TO BINARY FILE HEADS FROM KSTP 1 AND KPER 1

 CONCENTRATION WILL BE SAVED ON UNIT 1019 AT END OF TIME STEP  106, STRESS PERIOD    1

end timestep


start timestep kper="1" kstp="107" mode="normal"


 FMI SETTING BUDGET TERMS FOR KSTP 107 AND KPER 1 TO BUDGET FILE TERMS FROM KSTP 1 AND KPER 1

 FMI SETTING HEAD FOR KSTP 107 AND KPER 1 TO BINARY FILE HEADS FROM KSTP 1 AND KPER 1

 CONCENTRATION WILL BE SAVED ON UNIT 1019 AT END OF TIME STEP  107, STRESS PERIOD    1

end timestep


start timestep kper="1" kstp="108" mode="normal"


 FMI SETTING BUDGET TERMS FOR KSTP 108 AND KPER 1 TO BUDGET FILE TERMS FROM KSTP 1 AND KPER 1

 FMI SETTING HEAD FOR KSTP 108 AND KPER 1 TO BINARY FILE HEADS FROM KSTP 1 AND KPER 1

 CONCENTRATION WILL BE SAVED ON UNIT 1019 AT END OF TIME STEP  108, STRESS PERIOD    1

end timestep


start timestep kper="1" kstp="109" mode="normal"


 FMI SETTING BUDGET TERMS FOR KSTP 109 AND KPER 1 TO BUDGET FILE TERMS FROM KSTP 1 AND KPER 1

 FMI SETTING HEAD FOR KSTP 109 AND KPER 1 TO BINARY FILE HEADS FROM KSTP 1 AND KPER 1

 CONCENTRATION WILL BE SAVED ON UNIT 1019 AT END OF TIME STEP  109, STRESS PERIOD    1

end timestep


start timestep kper="1" kstp="110" mode="normal"


 FMI SETTING BUDGET TERMS FOR KSTP 110 AND KPER 1 TO BUDGET FILE TERMS FROM KSTP 1 AND KPER 1

 FMI SETTING HEAD FOR KSTP 110 AND KPER 1 TO BINARY FILE HEADS FROM KSTP 1 AND KPER 1

 CONCENTRATION WILL BE SAVED ON UNIT 1019 AT END OF TIME STEP  110, STRESS PERIOD    1

end timestep


start timestep kper="1" kstp="111" mode="normal"


 FMI SETTING BUDGET TERMS FOR KSTP 111 AND KPER 1 TO BUDGET FILE TERMS FROM KSTP 1 AND KPER 1

 FMI SETTING HEAD FOR KSTP 111 AND KPER 1 TO BINARY FILE HEADS FROM KSTP 1 AND KPER 1

 CONCENTRATION WILL BE SAVED ON UNIT 1019 AT END OF TIME STEP  111, STRESS PERIOD    1

end timestep


start timestep kper="1" kstp="112" mode="normal"


 FMI SETTING BUDGET TERMS FOR KSTP 112 AND KPER 1 TO BUDGET FILE TERMS FROM KSTP 1 AND KPER 1

 FMI SETTING HEAD FOR KSTP 112 AND KPER 1 TO BINARY FILE HEADS FROM KSTP 1 AND KPER 1

 CONCENTRATION WILL BE SAVED ON UNIT 1019 AT END OF TIME STEP  112, STRESS PERIOD    1

end timestep


start timestep kper="1" kstp="113" mode="normal"


 FMI SETTING BUDGET TERMS FOR KSTP 113 AND KPER 1 TO BUDGET FILE TERMS FROM KSTP 1 AND KPER 1

 FMI SETTING HEAD FOR KSTP 113 AND KPER 1 TO BINARY FILE HEADS FROM KSTP 1 AND KPER 1

 CONCENTRATION WILL BE SAVED ON UNIT 1019 AT END OF TIME STEP  113, STRESS PERIOD    1

end timestep


start timestep kper="1" kstp="114" mode="normal"


 FMI SETTING BUDGET TERMS FOR KSTP 114 AND KPER 1 TO BUDGET FILE TERMS FROM KSTP 1 AND KPER 1

 FMI SETTING HEAD FOR KSTP 114 AND KPER 1 TO BINARY FILE HEADS FROM KSTP 1 AND KPER 1

 CONCENTRATION WILL BE SAVED ON UNIT 1019 AT END OF TIME STEP  114, STRESS PERIOD    1

end timestep


start timestep kper="1" kstp="115" mode="normal"


 FMI SETTING BUDGET TERMS FOR KSTP 115 AND KPER 1 TO BUDGET FILE TERMS FROM KSTP 1 AND KPER 1

 FMI SETTING HEAD FOR KSTP 115 AND KPER 1 TO BINARY FILE HEADS FROM KSTP 1 AND KPER 1

 CONCENTRATION WILL BE SAVED ON UNIT 1019 AT END OF TIME STEP  115, STRESS PERIOD    1

end timestep


start timestep kper="1" kstp="116" mode="normal"


 FMI SETTING BUDGET TERMS FOR KSTP 116 AND KPER 1 TO BUDGET FILE TERMS FROM KSTP 1 AND KPER 1

 FMI SETTING HEAD FOR KSTP 116 AND KPER 1 TO BINARY FILE HEADS FROM KSTP 1 AND KPER 1

 CONCENTRATION WILL BE SAVED ON UNIT 1019 AT END OF TIME STEP  116, STRESS PERIOD    1

end timestep


start timestep kper="1" kstp="117" mode="normal"


 FMI SETTING BUDGET TERMS FOR KSTP 117 AND KPER 1 TO BUDGET FILE TERMS FROM KSTP 1 AND KPER 1

 FMI SETTING HEAD FOR KSTP 117 AND KPER 1 TO BINARY FILE HEADS FROM KSTP 1 AND KPER 1

 CONCENTRATION WILL BE SAVED ON UNIT 1019 AT END OF TIME STEP  117, STRESS PERIOD    1

end timestep


start timestep kper="1" kstp="118" mode="normal"


 FMI SETTING BUDGET TERMS FOR KSTP 118 AND KPER 1 TO BUDGET FILE TERMS FROM KSTP 1 AND KPER 1

 FMI SETTING HEAD FOR KSTP 118 AND KPER 1 TO BINARY FILE HEADS FROM KSTP 1 AND KPER 1

 CONCENTRATION WILL BE SAVED ON UNIT 1019 AT END OF TIME STEP  118, STRESS PERIOD    1

end timestep


start timestep kper="1" kstp="119" mode="normal"


 FMI SETTING BUDGET TERMS FOR KSTP 119 AND KPER 1 TO BUDGET FILE TERMS FROM KSTP 1 AND KPER 1

 FMI SETTING HEAD FOR KSTP 119 AND KPER 1 TO BINARY FILE HEADS FROM KSTP 1 AND KPER 1

 CONCENTRATION WILL BE SAVED ON UNIT 1019 AT END OF TIME STEP  119, STRESS PERIOD    1

end timestep


start timestep kper="1" kstp="120" mode="normal"


 FMI SETTING BUDGET TERMS FOR KSTP 120 AND KPER 1 TO BUDGET FILE TERMS FROM KSTP 1 AND KPER 1

 FMI SETTING HEAD FOR KSTP 120 AND KPER 1 TO BINARY FILE HEADS FROM KSTP 1 AND KPER 1

 CONCENTRATION WILL BE SAVED ON UNIT 1019 AT END OF TIME STEP  120, STRESS PERIOD    1

end timestep


start timestep kper="1" kstp="121" mode="normal"


 FMI SETTING BUDGET TERMS FOR KSTP 121 AND KPER 1 TO BUDGET FILE TERMS FROM KSTP 1 AND KPER 1

 FMI SETTING HEAD FOR KSTP 121 AND KPER 1 TO BINARY FILE HEADS FROM KSTP 1 AND KPER 1

 CONCENTRATION WILL BE SAVED ON UNIT 1019 AT END OF TIME STEP  121, STRESS PERIOD    1

end timestep


start timestep kper="1" kstp="122" mode="normal"


 FMI SETTING BUDGET TERMS FOR KSTP 122 AND KPER 1 TO BUDGET FILE TERMS FROM KSTP 1 AND KPER 1

 FMI SETTING HEAD FOR KSTP 122 AND KPER 1 TO BINARY FILE HEADS FROM KSTP 1 AND KPER 1

 CONCENTRATION WILL BE SAVED ON UNIT 1019 AT END OF TIME STEP  122, STRESS PERIOD    1

end timestep


start timestep kper="1" kstp="123" mode="normal"


 FMI SETTING BUDGET TERMS FOR KSTP 123 AND KPER 1 TO BUDGET FILE TERMS FROM KSTP 1 AND KPER 1

 FMI SETTING HEAD FOR KSTP 123 AND KPER 1 TO BINARY FILE HEADS FROM KSTP 1 AND KPER 1

 CONCENTRATION WILL BE SAVED ON UNIT 1019 AT END OF TIME STEP  123, STRESS PERIOD    1

end timestep


start timestep kper="1" kstp="124" mode="normal"


 FMI SETTING BUDGET TERMS FOR KSTP 124 AND KPER 1 TO BUDGET FILE TERMS FROM KSTP 1 AND KPER 1

 FMI SETTING HEAD FOR KSTP 124 AND KPER 1 TO BINARY FILE HEADS FROM KSTP 1 AND KPER 1

 CONCENTRATION WILL BE SAVED ON UNIT 1019 AT END OF TIME STEP  124, STRESS PERIOD    1

end timestep


start timestep kper="1" kstp="125" mode="normal"


 FMI SETTING BUDGET TERMS FOR KSTP 125 AND KPER 1 TO BUDGET FILE TERMS FROM KSTP 1 AND KPER 1

 FMI SETTING HEAD FOR KSTP 125 AND KPER 1 TO BINARY FILE HEADS FROM KSTP 1 AND KPER 1

 CONCENTRATION WILL BE SAVED ON UNIT 1019 AT END OF TIME STEP  125, STRESS PERIOD    1

end timestep


start timestep kper="1" kstp="126" mode="normal"


 FMI SETTING BUDGET TERMS FOR KSTP 126 AND KPER 1 TO BUDGET FILE TERMS FROM KSTP 1 AND KPER 1

 FMI SETTING HEAD FOR KSTP 126 AND KPER 1 TO BINARY FILE HEADS FROM KSTP 1 AND KPER 1

 CONCENTRATION WILL BE SAVED ON UNIT 1019 AT END OF TIME STEP  126, STRESS PERIOD    1

end timestep


start timestep kper="1" kstp="127" mode="normal"


 FMI SETTING BUDGET TERMS FOR KSTP 127 AND KPER 1 TO BUDGET FILE TERMS FROM KSTP 1 AND KPER 1

 FMI SETTING HEAD FOR KSTP 127 AND KPER 1 TO BINARY FILE HEADS FROM KSTP 1 AND KPER 1

 CONCENTRATION WILL BE SAVED ON UNIT 1019 AT END OF TIME STEP  127, STRESS PERIOD    1

end timestep


start timestep kper="1" kstp="128" mode="normal"


 FMI SETTING BUDGET TERMS FOR KSTP 128 AND KPER 1 TO BUDGET FILE TERMS FROM KSTP 1 AND KPER 1

 FMI SETTING HEAD FOR KSTP 128 AND KPER 1 TO BINARY FILE HEADS FROM KSTP 1 AND KPER 1

 CONCENTRATION WILL BE SAVED ON UNIT 1019 AT END OF TIME STEP  128, STRESS PERIOD    1

end timestep


start timestep kper="1" kstp="129" mode="normal"


 FMI SETTING BUDGET TERMS FOR KSTP 129 AND KPER 1 TO BUDGET FILE TERMS FROM KSTP 1 AND KPER 1

 FMI SETTING HEAD FOR KSTP 129 AND KPER 1 TO BINARY FILE HEADS FROM KSTP 1 AND KPER 1

 CONCENTRATION WILL BE SAVED ON UNIT 1019 AT END OF TIME STEP  129, STRESS PERIOD    1

end timestep


start timestep kper="1" kstp="130" mode="normal"


 FMI SETTING BUDGET TERMS FOR KSTP 130 AND KPER 1 TO BUDGET FILE TERMS FROM KSTP 1 AND KPER 1

 FMI SETTING HEAD FOR KSTP 130 AND KPER 1 TO BINARY FILE HEADS FROM KSTP 1 AND KPER 1

 CONCENTRATION WILL BE SAVED ON UNIT 1019 AT END OF TIME STEP  130, STRESS PERIOD    1

end timestep


start timestep kper="1" kstp="131" mode="normal"


 FMI SETTING BUDGET TERMS FOR KSTP 131 AND KPER 1 TO BUDGET FILE TERMS FROM KSTP 1 AND KPER 1

 FMI SETTING HEAD FOR KSTP 131 AND KPER 1 TO BINARY FILE HEADS FROM KSTP 1 AND KPER 1

 CONCENTRATION WILL BE SAVED ON UNIT 1019 AT END OF TIME STEP  131, STRESS PERIOD    1

end timestep


start timestep kper="1" kstp="132" mode="normal"


 FMI SETTING BUDGET TERMS FOR KSTP 132 AND KPER 1 TO BUDGET FILE TERMS FROM KSTP 1 AND KPER 1

 FMI SETTING HEAD FOR KSTP 132 AND KPER 1 TO BINARY FILE HEADS FROM KSTP 1 AND KPER 1

 CONCENTRATION WILL BE SAVED ON UNIT 1019 AT END OF TIME STEP  132, STRESS PERIOD    1

end timestep


start timestep kper="1" kstp="133" mode="normal"


 FMI SETTING BUDGET TERMS FOR KSTP 133 AND KPER 1 TO BUDGET FILE TERMS FROM KSTP 1 AND KPER 1

 FMI SETTING HEAD FOR KSTP 133 AND KPER 1 TO BINARY FILE HEADS FROM KSTP 1 AND KPER 1

 CONCENTRATION WILL BE SAVED ON UNIT 1019 AT END OF TIME STEP  133, STRESS PERIOD    1

end timestep


start timestep kper="1" kstp="134" mode="normal"


 FMI SETTING BUDGET TERMS FOR KSTP 134 AND KPER 1 TO BUDGET FILE TERMS FROM KSTP 1 AND KPER 1

 FMI SETTING HEAD FOR KSTP 134 AND KPER 1 TO BINARY FILE HEADS FROM KSTP 1 AND KPER 1

 CONCENTRATION WILL BE SAVED ON UNIT 1019 AT END OF TIME STEP  134, STRESS PERIOD    1

end timestep


start timestep kper="1" kstp="135" mode="normal"


 FMI SETTING BUDGET TERMS FOR KSTP 135 AND KPER 1 TO BUDGET FILE TERMS FROM KSTP 1 AND KPER 1

 FMI SETTING HEAD FOR KSTP 135 AND KPER 1 TO BINARY FILE HEADS FROM KSTP 1 AND KPER 1

 CONCENTRATION WILL BE SAVED ON UNIT 1019 AT END OF TIME STEP  135, STRESS PERIOD    1

end timestep


start timestep kper="1" kstp="136" mode="normal"


 FMI SETTING BUDGET TERMS FOR KSTP 136 AND KPER 1 TO BUDGET FILE TERMS FROM KSTP 1 AND KPER 1

 FMI SETTING HEAD FOR KSTP 136 AND KPER 1 TO BINARY FILE HEADS FROM KSTP 1 AND KPER 1

 CONCENTRATION WILL BE SAVED ON UNIT 1019 AT END OF TIME STEP  136, STRESS PERIOD    1

end timestep


start timestep kper="1" kstp="137" mode="normal"


 FMI SETTING BUDGET TERMS FOR KSTP 137 AND KPER 1 TO BUDGET FILE TERMS FROM KSTP 1 AND KPER 1

 FMI SETTING HEAD FOR KSTP 137 AND KPER 1 TO BINARY FILE HEADS FROM KSTP 1 AND KPER 1

 CONCENTRATION WILL BE SAVED ON UNIT 1019 AT END OF TIME STEP  137, STRESS PERIOD    1

end timestep


start timestep kper="1" kstp="138" mode="normal"


 FMI SETTING BUDGET TERMS FOR KSTP 138 AND KPER 1 TO BUDGET FILE TERMS FROM KSTP 1 AND KPER 1

 FMI SETTING HEAD FOR KSTP 138 AND KPER 1 TO BINARY FILE HEADS FROM KSTP 1 AND KPER 1

 CONCENTRATION WILL BE SAVED ON UNIT 1019 AT END OF TIME STEP  138, STRESS PERIOD    1

end timestep


start timestep kper="1" kstp="139" mode="normal"


 FMI SETTING BUDGET TERMS FOR KSTP 139 AND KPER 1 TO BUDGET FILE TERMS FROM KSTP 1 AND KPER 1

 FMI SETTING HEAD FOR KSTP 139 AND KPER 1 TO BINARY FILE HEADS FROM KSTP 1 AND KPER 1

 CONCENTRATION WILL BE SAVED ON UNIT 1019 AT END OF TIME STEP  139, STRESS PERIOD    1

end timestep


start timestep kper="1" kstp="140" mode="normal"


 FMI SETTING BUDGET TERMS FOR KSTP 140 AND KPER 1 TO BUDGET FILE TERMS FROM KSTP 1 AND KPER 1

 FMI SETTING HEAD FOR KSTP 140 AND KPER 1 TO BINARY FILE HEADS FROM KSTP 1 AND KPER 1

 CONCENTRATION WILL BE SAVED ON UNIT 1019 AT END OF TIME STEP  140, STRESS PERIOD    1

end timestep


start timestep kper="1" kstp="141" mode="normal"


 FMI SETTING BUDGET TERMS FOR KSTP 141 AND KPER 1 TO BUDGET FILE TERMS FROM KSTP 1 AND KPER 1

 FMI SETTING HEAD FOR KSTP 141 AND KPER 1 TO BINARY FILE HEADS FROM KSTP 1 AND KPER 1

 CONCENTRATION WILL BE SAVED ON UNIT 1019 AT END OF TIME STEP  141, STRESS PERIOD    1

end timestep


start timestep kper="1" kstp="142" mode="normal"


 FMI SETTING BUDGET TERMS FOR KSTP 142 AND KPER 1 TO BUDGET FILE TERMS FROM KSTP 1 AND KPER 1

 FMI SETTING HEAD FOR KSTP 142 AND KPER 1 TO BINARY FILE HEADS FROM KSTP 1 AND KPER 1

 CONCENTRATION WILL BE SAVED ON UNIT 1019 AT END OF TIME STEP  142, STRESS PERIOD    1

end timestep


start timestep kper="1" kstp="143" mode="normal"


 FMI SETTING BUDGET TERMS FOR KSTP 143 AND KPER 1 TO BUDGET FILE TERMS FROM KSTP 1 AND KPER 1

 FMI SETTING HEAD FOR KSTP 143 AND KPER 1 TO BINARY FILE HEADS FROM KSTP 1 AND KPER 1

 CONCENTRATION WILL BE SAVED ON UNIT 1019 AT END OF TIME STEP  143, STRESS PERIOD    1

end timestep


start timestep kper="1" kstp="144" mode="normal"


 FMI SETTING BUDGET TERMS FOR KSTP 144 AND KPER 1 TO BUDGET FILE TERMS FROM KSTP 1 AND KPER 1

 FMI SETTING HEAD FOR KSTP 144 AND KPER 1 TO BINARY FILE HEADS FROM KSTP 1 AND KPER 1

 CONCENTRATION WILL BE SAVED ON UNIT 1019 AT END OF TIME STEP  144, STRESS PERIOD    1

end timestep


start timestep kper="1" kstp="145" mode="normal"


 FMI SETTING BUDGET TERMS FOR KSTP 145 AND KPER 1 TO BUDGET FILE TERMS FROM KSTP 1 AND KPER 1

 FMI SETTING HEAD FOR KSTP 145 AND KPER 1 TO BINARY FILE HEADS FROM KSTP 1 AND KPER 1

 CONCENTRATION WILL BE SAVED ON UNIT 1019 AT END OF TIME STEP  145, STRESS PERIOD    1

end timestep


start timestep kper="1" kstp="146" mode="normal"


 FMI SETTING BUDGET TERMS FOR KSTP 146 AND KPER 1 TO BUDGET FILE TERMS FROM KSTP 1 AND KPER 1

 FMI SETTING HEAD FOR KSTP 146 AND KPER 1 TO BINARY FILE HEADS FROM KSTP 1 AND KPER 1

 CONCENTRATION WILL BE SAVED ON UNIT 1019 AT END OF TIME STEP  146, STRESS PERIOD    1

end timestep


start timestep kper="1" kstp="147" mode="normal"


 FMI SETTING BUDGET TERMS FOR KSTP 147 AND KPER 1 TO BUDGET FILE TERMS FROM KSTP 1 AND KPER 1

 FMI SETTING HEAD FOR KSTP 147 AND KPER 1 TO BINARY FILE HEADS FROM KSTP 1 AND KPER 1

 CONCENTRATION WILL BE SAVED ON UNIT 1019 AT END OF TIME STEP  147, STRESS PERIOD    1

end timestep


start timestep kper="1" kstp="148" mode="normal"


 FMI SETTING BUDGET TERMS FOR KSTP 148 AND KPER 1 TO BUDGET FILE TERMS FROM KSTP 1 AND KPER 1

 FMI SETTING HEAD FOR KSTP 148 AND KPER 1 TO BINARY FILE HEADS FROM KSTP 1 AND KPER 1

 CONCENTRATION WILL BE SAVED ON UNIT 1019 AT END OF TIME STEP  148, STRESS PERIOD    1

end timestep


start timestep kper="1" kstp="149" mode="normal"


 FMI SETTING BUDGET TERMS FOR KSTP 149 AND KPER 1 TO BUDGET FILE TERMS FROM KSTP 1 AND KPER 1

 FMI SETTING HEAD FOR KSTP 149 AND KPER 1 TO BINARY FILE HEADS FROM KSTP 1 AND KPER 1

 CONCENTRATION WILL BE SAVED ON UNIT 1019 AT END OF TIME STEP  149, STRESS PERIOD    1

end timestep


start timestep kper="1" kstp="150" mode="normal"


 FMI SETTING BUDGET TERMS FOR KSTP 150 AND KPER 1 TO BUDGET FILE TERMS FROM KSTP 1 AND KPER 1

 FMI SETTING HEAD FOR KSTP 150 AND KPER 1 TO BINARY FILE HEADS FROM KSTP 1 AND KPER 1

 CONCENTRATION WILL BE SAVED ON UNIT 1019 AT END OF TIME STEP  150, STRESS PERIOD    1

end timestep


start timestep kper="1" kstp="151" mode="normal"


 FMI SETTING BUDGET TERMS FOR KSTP 151 AND KPER 1 TO BUDGET FILE TERMS FROM KSTP 1 AND KPER 1

 FMI SETTING HEAD FOR KSTP 151 AND KPER 1 TO BINARY FILE HEADS FROM KSTP 1 AND KPER 1

 CONCENTRATION WILL BE SAVED ON UNIT 1019 AT END OF TIME STEP  151, STRESS PERIOD    1

end timestep


start timestep kper="1" kstp="152" mode="normal"


 FMI SETTING BUDGET TERMS FOR KSTP 152 AND KPER 1 TO BUDGET FILE TERMS FROM KSTP 1 AND KPER 1

 FMI SETTING HEAD FOR KSTP 152 AND KPER 1 TO BINARY FILE HEADS FROM KSTP 1 AND KPER 1

 CONCENTRATION WILL BE SAVED ON UNIT 1019 AT END OF TIME STEP  152, STRESS PERIOD    1

end timestep


start timestep kper="1" kstp="153" mode="normal"


 FMI SETTING BUDGET TERMS FOR KSTP 153 AND KPER 1 TO BUDGET FILE TERMS FROM KSTP 1 AND KPER 1

 FMI SETTING HEAD FOR KSTP 153 AND KPER 1 TO BINARY FILE HEADS FROM KSTP 1 AND KPER 1

 CONCENTRATION WILL BE SAVED ON UNIT 1019 AT END OF TIME STEP  153, STRESS PERIOD    1

end timestep


start timestep kper="1" kstp="154" mode="normal"


 FMI SETTING BUDGET TERMS FOR KSTP 154 AND KPER 1 TO BUDGET FILE TERMS FROM KSTP 1 AND KPER 1

 FMI SETTING HEAD FOR KSTP 154 AND KPER 1 TO BINARY FILE HEADS FROM KSTP 1 AND KPER 1

 CONCENTRATION WILL BE SAVED ON UNIT 1019 AT END OF TIME STEP  154, STRESS PERIOD    1

end timestep


start timestep kper="1" kstp="155" mode="normal"


 FMI SETTING BUDGET TERMS FOR KSTP 155 AND KPER 1 TO BUDGET FILE TERMS FROM KSTP 1 AND KPER 1

 FMI SETTING HEAD FOR KSTP 155 AND KPER 1 TO BINARY FILE HEADS FROM KSTP 1 AND KPER 1

 CONCENTRATION WILL BE SAVED ON UNIT 1019 AT END OF TIME STEP  155, STRESS PERIOD    1

end timestep


start timestep kper="1" kstp="156" mode="normal"


 FMI SETTING BUDGET TERMS FOR KSTP 156 AND KPER 1 TO BUDGET FILE TERMS FROM KSTP 1 AND KPER 1

 FMI SETTING HEAD FOR KSTP 156 AND KPER 1 TO BINARY FILE HEADS FROM KSTP 1 AND KPER 1

 CONCENTRATION WILL BE SAVED ON UNIT 1019 AT END OF TIME STEP  156, STRESS PERIOD    1

end timestep


start timestep kper="1" kstp="157" mode="normal"


 FMI SETTING BUDGET TERMS FOR KSTP 157 AND KPER 1 TO BUDGET FILE TERMS FROM KSTP 1 AND KPER 1

 FMI SETTING HEAD FOR KSTP 157 AND KPER 1 TO BINARY FILE HEADS FROM KSTP 1 AND KPER 1

 CONCENTRATION WILL BE SAVED ON UNIT 1019 AT END OF TIME STEP  157, STRESS PERIOD    1

end timestep


start timestep kper="1" kstp="158" mode="normal"


 FMI SETTING BUDGET TERMS FOR KSTP 158 AND KPER 1 TO BUDGET FILE TERMS FROM KSTP 1 AND KPER 1

 FMI SETTING HEAD FOR KSTP 158 AND KPER 1 TO BINARY FILE HEADS FROM KSTP 1 AND KPER 1

 CONCENTRATION WILL BE SAVED ON UNIT 1019 AT END OF TIME STEP  158, STRESS PERIOD    1

end timestep


start timestep kper="1" kstp="159" mode="normal"


 FMI SETTING BUDGET TERMS FOR KSTP 159 AND KPER 1 TO BUDGET FILE TERMS FROM KSTP 1 AND KPER 1

 FMI SETTING HEAD FOR KSTP 159 AND KPER 1 TO BINARY FILE HEADS FROM KSTP 1 AND KPER 1

 CONCENTRATION WILL BE SAVED ON UNIT 1019 AT END OF TIME STEP  159, STRESS PERIOD    1

end timestep


start timestep kper="1" kstp="160" mode="normal"


 FMI SETTING BUDGET TERMS FOR KSTP 160 AND KPER 1 TO BUDGET FILE TERMS FROM KSTP 1 AND KPER 1

 FMI SETTING HEAD FOR KSTP 160 AND KPER 1 TO BINARY FILE HEADS FROM KSTP 1 AND KPER 1

 CONCENTRATION WILL BE SAVED ON UNIT 1019 AT END OF TIME STEP  160, STRESS PERIOD    1

end timestep


start timestep kper="1" kstp="161" mode="normal"


 FMI SETTING BUDGET TERMS FOR KSTP 161 AND KPER 1 TO BUDGET FILE TERMS FROM KSTP 1 AND KPER 1

 FMI SETTING HEAD FOR KSTP 161 AND KPER 1 TO BINARY FILE HEADS FROM KSTP 1 AND KPER 1

 CONCENTRATION WILL BE SAVED ON UNIT 1019 AT END OF TIME STEP  161, STRESS PERIOD    1

end timestep


start timestep kper="1" kstp="162" mode="normal"


 FMI SETTING BUDGET TERMS FOR KSTP 162 AND KPER 1 TO BUDGET FILE TERMS FROM KSTP 1 AND KPER 1

 FMI SETTING HEAD FOR KSTP 162 AND KPER 1 TO BINARY FILE HEADS FROM KSTP 1 AND KPER 1

 CONCENTRATION WILL BE SAVED ON UNIT 1019 AT END OF TIME STEP  162, STRESS PERIOD    1

end timestep


start timestep kper="1" kstp="163" mode="normal"


 FMI SETTING BUDGET TERMS FOR KSTP 163 AND KPER 1 TO BUDGET FILE TERMS FROM KSTP 1 AND KPER 1

 FMI SETTING HEAD FOR KSTP 163 AND KPER 1 TO BINARY FILE HEADS FROM KSTP 1 AND KPER 1

 CONCENTRATION WILL BE SAVED ON UNIT 1019 AT END OF TIME STEP  163, STRESS PERIOD    1

end timestep


start timestep kper="1" kstp="164" mode="normal"


 FMI SETTING BUDGET TERMS FOR KSTP 164 AND KPER 1 TO BUDGET FILE TERMS FROM KSTP 1 AND KPER 1

 FMI SETTING HEAD FOR KSTP 164 AND KPER 1 TO BINARY FILE HEADS FROM KSTP 1 AND KPER 1

 CONCENTRATION WILL BE SAVED ON UNIT 1019 AT END OF TIME STEP  164, STRESS PERIOD    1

end timestep


start timestep kper="1" kstp="165" mode="normal"


 FMI SETTING BUDGET TERMS FOR KSTP 165 AND KPER 1 TO BUDGET FILE TERMS FROM KSTP 1 AND KPER 1

 FMI SETTING HEAD FOR KSTP 165 AND KPER 1 TO BINARY FILE HEADS FROM KSTP 1 AND KPER 1

 CONCENTRATION WILL BE SAVED ON UNIT 1019 AT END OF TIME STEP  165, STRESS PERIOD    1

end timestep


start timestep kper="1" kstp="166" mode="normal"


 FMI SETTING BUDGET TERMS FOR KSTP 166 AND KPER 1 TO BUDGET FILE TERMS FROM KSTP 1 AND KPER 1

 FMI SETTING HEAD FOR KSTP 166 AND KPER 1 TO BINARY FILE HEADS FROM KSTP 1 AND KPER 1

 CONCENTRATION WILL BE SAVED ON UNIT 1019 AT END OF TIME STEP  166, STRESS PERIOD    1

end timestep


start timestep kper="1" kstp="167" mode="normal"


 FMI SETTING BUDGET TERMS FOR KSTP 167 AND KPER 1 TO BUDGET FILE TERMS FROM KSTP 1 AND KPER 1

 FMI SETTING HEAD FOR KSTP 167 AND KPER 1 TO BINARY FILE HEADS FROM KSTP 1 AND KPER 1

 CONCENTRATION WILL BE SAVED ON UNIT 1019 AT END OF TIME STEP  167, STRESS PERIOD    1

end timestep


start timestep kper="1" kstp="168" mode="normal"


 FMI SETTING BUDGET TERMS FOR KSTP 168 AND KPER 1 TO BUDGET FILE TERMS FROM KSTP 1 AND KPER 1

 FMI SETTING HEAD FOR KSTP 168 AND KPER 1 TO BINARY FILE HEADS FROM KSTP 1 AND KPER 1

 CONCENTRATION WILL BE SAVED ON UNIT 1019 AT END OF TIME STEP  168, STRESS PERIOD    1

end timestep


start timestep kper="1" kstp="169" mode="normal"


 FMI SETTING BUDGET TERMS FOR KSTP 169 AND KPER 1 TO BUDGET FILE TERMS FROM KSTP 1 AND KPER 1

 FMI SETTING HEAD FOR KSTP 169 AND KPER 1 TO BINARY FILE HEADS FROM KSTP 1 AND KPER 1

 CONCENTRATION WILL BE SAVED ON UNIT 1019 AT END OF TIME STEP  169, STRESS PERIOD    1

end timestep


start timestep kper="1" kstp="170" mode="normal"


 FMI SETTING BUDGET TERMS FOR KSTP 170 AND KPER 1 TO BUDGET FILE TERMS FROM KSTP 1 AND KPER 1

 FMI SETTING HEAD FOR KSTP 170 AND KPER 1 TO BINARY FILE HEADS FROM KSTP 1 AND KPER 1

 CONCENTRATION WILL BE SAVED ON UNIT 1019 AT END OF TIME STEP  170, STRESS PERIOD    1

end timestep


start timestep kper="1" kstp="171" mode="normal"


 FMI SETTING BUDGET TERMS FOR KSTP 171 AND KPER 1 TO BUDGET FILE TERMS FROM KSTP 1 AND KPER 1

 FMI SETTING HEAD FOR KSTP 171 AND KPER 1 TO BINARY FILE HEADS FROM KSTP 1 AND KPER 1

 CONCENTRATION WILL BE SAVED ON UNIT 1019 AT END OF TIME STEP  171, STRESS PERIOD    1

end timestep


start timestep kper="1" kstp="172" mode="normal"


 FMI SETTING BUDGET TERMS FOR KSTP 172 AND KPER 1 TO BUDGET FILE TERMS FROM KSTP 1 AND KPER 1

 FMI SETTING HEAD FOR KSTP 172 AND KPER 1 TO BINARY FILE HEADS FROM KSTP 1 AND KPER 1

 CONCENTRATION WILL BE SAVED ON UNIT 1019 AT END OF TIME STEP  172, STRESS PERIOD    1

end timestep


start timestep kper="1" kstp="173" mode="normal"


 FMI SETTING BUDGET TERMS FOR KSTP 173 AND KPER 1 TO BUDGET FILE TERMS FROM KSTP 1 AND KPER 1

 FMI SETTING HEAD FOR KSTP 173 AND KPER 1 TO BINARY FILE HEADS FROM KSTP 1 AND KPER 1

 CONCENTRATION WILL BE SAVED ON UNIT 1019 AT END OF TIME STEP  173, STRESS PERIOD    1

end timestep


start timestep kper="1" kstp="174" mode="normal"


 FMI SETTING BUDGET TERMS FOR KSTP 174 AND KPER 1 TO BUDGET FILE TERMS FROM KSTP 1 AND KPER 1

 FMI SETTING HEAD FOR KSTP 174 AND KPER 1 TO BINARY FILE HEADS FROM KSTP 1 AND KPER 1

 CONCENTRATION WILL BE SAVED ON UNIT 1019 AT END OF TIME STEP  174, STRESS PERIOD    1

end timestep


start timestep kper="1" kstp="175" mode="normal"


 FMI SETTING BUDGET TERMS FOR KSTP 175 AND KPER 1 TO BUDGET FILE TERMS FROM KSTP 1 AND KPER 1

 FMI SETTING HEAD FOR KSTP 175 AND KPER 1 TO BINARY FILE HEADS FROM KSTP 1 AND KPER 1

 CONCENTRATION WILL BE SAVED ON UNIT 1019 AT END OF TIME STEP  175, STRESS PERIOD    1

end timestep


start timestep kper="1" kstp="176" mode="normal"


 FMI SETTING BUDGET TERMS FOR KSTP 176 AND KPER 1 TO BUDGET FILE TERMS FROM KSTP 1 AND KPER 1

 FMI SETTING HEAD FOR KSTP 176 AND KPER 1 TO BINARY FILE HEADS FROM KSTP 1 AND KPER 1

 CONCENTRATION WILL BE SAVED ON UNIT 1019 AT END OF TIME STEP  176, STRESS PERIOD    1

end timestep


start timestep kper="1" kstp="177" mode="normal"


 FMI SETTING BUDGET TERMS FOR KSTP 177 AND KPER 1 TO BUDGET FILE TERMS FROM KSTP 1 AND KPER 1

 FMI SETTING HEAD FOR KSTP 177 AND KPER 1 TO BINARY FILE HEADS FROM KSTP 1 AND KPER 1

 CONCENTRATION WILL BE SAVED ON UNIT 1019 AT END OF TIME STEP  177, STRESS PERIOD    1

end timestep


start timestep kper="1" kstp="178" mode="normal"


 FMI SETTING BUDGET TERMS FOR KSTP 178 AND KPER 1 TO BUDGET FILE TERMS FROM KSTP 1 AND KPER 1

 FMI SETTING HEAD FOR KSTP 178 AND KPER 1 TO BINARY FILE HEADS FROM KSTP 1 AND KPER 1

 CONCENTRATION WILL BE SAVED ON UNIT 1019 AT END OF TIME STEP  178, STRESS PERIOD    1

end timestep


start timestep kper="1" kstp="179" mode="normal"


 FMI SETTING BUDGET TERMS FOR KSTP 179 AND KPER 1 TO BUDGET FILE TERMS FROM KSTP 1 AND KPER 1

 FMI SETTING HEAD FOR KSTP 179 AND KPER 1 TO BINARY FILE HEADS FROM KSTP 1 AND KPER 1

 CONCENTRATION WILL BE SAVED ON UNIT 1019 AT END OF TIME STEP  179, STRESS PERIOD    1

end timestep


start timestep kper="1" kstp="180" mode="normal"


 FMI SETTING BUDGET TERMS FOR KSTP 180 AND KPER 1 TO BUDGET FILE TERMS FROM KSTP 1 AND KPER 1

 FMI SETTING HEAD FOR KSTP 180 AND KPER 1 TO BINARY FILE HEADS FROM KSTP 1 AND KPER 1

 CONCENTRATION WILL BE SAVED ON UNIT 1019 AT END OF TIME STEP  180, STRESS PERIOD    1

end timestep


start timestep kper="1" kstp="181" mode="normal"


 FMI SETTING BUDGET TERMS FOR KSTP 181 AND KPER 1 TO BUDGET FILE TERMS FROM KSTP 1 AND KPER 1

 FMI SETTING HEAD FOR KSTP 181 AND KPER 1 TO BINARY FILE HEADS FROM KSTP 1 AND KPER 1

 CONCENTRATION WILL BE SAVED ON UNIT 1019 AT END OF TIME STEP  181, STRESS PERIOD    1

end timestep


start timestep kper="1" kstp="182" mode="normal"


 FMI SETTING BUDGET TERMS FOR KSTP 182 AND KPER 1 TO BUDGET FILE TERMS FROM KSTP 1 AND KPER 1

 FMI SETTING HEAD FOR KSTP 182 AND KPER 1 TO BINARY FILE HEADS FROM KSTP 1 AND KPER 1

 CONCENTRATION WILL BE SAVED ON UNIT 1019 AT END OF TIME STEP  182, STRESS PERIOD    1

end timestep


start timestep kper="1" kstp="183" mode="normal"


 FMI SETTING BUDGET TERMS FOR KSTP 183 AND KPER 1 TO BUDGET FILE TERMS FROM KSTP 1 AND KPER 1

 FMI SETTING HEAD FOR KSTP 183 AND KPER 1 TO BINARY FILE HEADS FROM KSTP 1 AND KPER 1

 CONCENTRATION WILL BE SAVED ON UNIT 1019 AT END OF TIME STEP  183, STRESS PERIOD    1

end timestep


start timestep kper="1" kstp="184" mode="normal"


 FMI SETTING BUDGET TERMS FOR KSTP 184 AND KPER 1 TO BUDGET FILE TERMS FROM KSTP 1 AND KPER 1

 FMI SETTING HEAD FOR KSTP 184 AND KPER 1 TO BINARY FILE HEADS FROM KSTP 1 AND KPER 1

 CONCENTRATION WILL BE SAVED ON UNIT 1019 AT END OF TIME STEP  184, STRESS PERIOD    1

end timestep


start timestep kper="1" kstp="185" mode="normal"


 FMI SETTING BUDGET TERMS FOR KSTP 185 AND KPER 1 TO BUDGET FILE TERMS FROM KSTP 1 AND KPER 1

 FMI SETTING HEAD FOR KSTP 185 AND KPER 1 TO BINARY FILE HEADS FROM KSTP 1 AND KPER 1

 CONCENTRATION WILL BE SAVED ON UNIT 1019 AT END OF TIME STEP  185, STRESS PERIOD    1

end timestep


start timestep kper="1" kstp="186" mode="normal"


 FMI SETTING BUDGET TERMS FOR KSTP 186 AND KPER 1 TO BUDGET FILE TERMS FROM KSTP 1 AND KPER 1

 FMI SETTING HEAD FOR KSTP 186 AND KPER 1 TO BINARY FILE HEADS FROM KSTP 1 AND KPER 1

 CONCENTRATION WILL BE SAVED ON UNIT 1019 AT END OF TIME STEP  186, STRESS PERIOD    1

end timestep


start timestep kper="1" kstp="187" mode="normal"


 FMI SETTING BUDGET TERMS FOR KSTP 187 AND KPER 1 TO BUDGET FILE TERMS FROM KSTP 1 AND KPER 1

 FMI SETTING HEAD FOR KSTP 187 AND KPER 1 TO BINARY FILE HEADS FROM KSTP 1 AND KPER 1

 CONCENTRATION WILL BE SAVED ON UNIT 1019 AT END OF TIME STEP  187, STRESS PERIOD    1

end timestep


start timestep kper="1" kstp="188" mode="normal"


 FMI SETTING BUDGET TERMS FOR KSTP 188 AND KPER 1 TO BUDGET FILE TERMS FROM KSTP 1 AND KPER 1

 FMI SETTING HEAD FOR KSTP 188 AND KPER 1 TO BINARY FILE HEADS FROM KSTP 1 AND KPER 1

 CONCENTRATION WILL BE SAVED ON UNIT 1019 AT END OF TIME STEP  188, STRESS PERIOD    1

end timestep


start timestep kper="1" kstp="189" mode="normal"


 FMI SETTING BUDGET TERMS FOR KSTP 189 AND KPER 1 TO BUDGET FILE TERMS FROM KSTP 1 AND KPER 1

 FMI SETTING HEAD FOR KSTP 189 AND KPER 1 TO BINARY FILE HEADS FROM KSTP 1 AND KPER 1

 CONCENTRATION WILL BE SAVED ON UNIT 1019 AT END OF TIME STEP  189, STRESS PERIOD    1

end timestep


start timestep kper="1" kstp="190" mode="normal"


 FMI SETTING BUDGET TERMS FOR KSTP 190 AND KPER 1 TO BUDGET FILE TERMS FROM KSTP 1 AND KPER 1

 FMI SETTING HEAD FOR KSTP 190 AND KPER 1 TO BINARY FILE HEADS FROM KSTP 1 AND KPER 1

 CONCENTRATION WILL BE SAVED ON UNIT 1019 AT END OF TIME STEP  190, STRESS PERIOD    1

end timestep


start timestep kper="1" kstp="191" mode="normal"


 FMI SETTING BUDGET TERMS FOR KSTP 191 AND KPER 1 TO BUDGET FILE TERMS FROM KSTP 1 AND KPER 1

 FMI SETTING HEAD FOR KSTP 191 AND KPER 1 TO BINARY FILE HEADS FROM KSTP 1 AND KPER 1

 CONCENTRATION WILL BE SAVED ON UNIT 1019 AT END OF TIME STEP  191, STRESS PERIOD    1

end timestep


start timestep kper="1" kstp="192" mode="normal"


 FMI SETTING BUDGET TERMS FOR KSTP 192 AND KPER 1 TO BUDGET FILE TERMS FROM KSTP 1 AND KPER 1

 FMI SETTING HEAD FOR KSTP 192 AND KPER 1 TO BINARY FILE HEADS FROM KSTP 1 AND KPER 1

 CONCENTRATION WILL BE SAVED ON UNIT 1019 AT END OF TIME STEP  192, STRESS PERIOD    1

end timestep


start timestep kper="1" kstp="193" mode="normal"


 FMI SETTING BUDGET TERMS FOR KSTP 193 AND KPER 1 TO BUDGET FILE TERMS FROM KSTP 1 AND KPER 1

 FMI SETTING HEAD FOR KSTP 193 AND KPER 1 TO BINARY FILE HEADS FROM KSTP 1 AND KPER 1

 CONCENTRATION WILL BE SAVED ON UNIT 1019 AT END OF TIME STEP  193, STRESS PERIOD    1

end timestep


start timestep kper="1" kstp="194" mode="normal"


 FMI SETTING BUDGET TERMS FOR KSTP 194 AND KPER 1 TO BUDGET FILE TERMS FROM KSTP 1 AND KPER 1

 FMI SETTING HEAD FOR KSTP 194 AND KPER 1 TO BINARY FILE HEADS FROM KSTP 1 AND KPER 1

 CONCENTRATION WILL BE SAVED ON UNIT 1019 AT END OF TIME STEP  194, STRESS PERIOD    1

end timestep


start timestep kper="1" kstp="195" mode="normal"


 FMI SETTING BUDGET TERMS FOR KSTP 195 AND KPER 1 TO BUDGET FILE TERMS FROM KSTP 1 AND KPER 1

 FMI SETTING HEAD FOR KSTP 195 AND KPER 1 TO BINARY FILE HEADS FROM KSTP 1 AND KPER 1

 CONCENTRATION WILL BE SAVED ON UNIT 1019 AT END OF TIME STEP  195, STRESS PERIOD    1

end timestep


start timestep kper="1" kstp="196" mode="normal"


 FMI SETTING BUDGET TERMS FOR KSTP 196 AND KPER 1 TO BUDGET FILE TERMS FROM KSTP 1 AND KPER 1

 FMI SETTING HEAD FOR KSTP 196 AND KPER 1 TO BINARY FILE HEADS FROM KSTP 1 AND KPER 1

 CONCENTRATION WILL BE SAVED ON UNIT 1019 AT END OF TIME STEP  196, STRESS PERIOD    1

end timestep


start timestep kper="1" kstp="197" mode="normal"


 FMI SETTING BUDGET TERMS FOR KSTP 197 AND KPER 1 TO BUDGET FILE TERMS FROM KSTP 1 AND KPER 1

 FMI SETTING HEAD FOR KSTP 197 AND KPER 1 TO BINARY FILE HEADS FROM KSTP 1 AND KPER 1

 CONCENTRATION WILL BE SAVED ON UNIT 1019 AT END OF TIME STEP  197, STRESS PERIOD    1

end timestep


start timestep kper="1" kstp="198" mode="normal"


 FMI SETTING BUDGET TERMS FOR KSTP 198 AND KPER 1 TO BUDGET FILE TERMS FROM KSTP 1 AND KPER 1

 FMI SETTING HEAD FOR KSTP 198 AND KPER 1 TO BINARY FILE HEADS FROM KSTP 1 AND KPER 1

 CONCENTRATION WILL BE SAVED ON UNIT 1019 AT END OF TIME STEP  198, STRESS PERIOD    1

end timestep


start timestep kper="1" kstp="199" mode="normal"


 FMI SETTING BUDGET TERMS FOR KSTP 199 AND KPER 1 TO BUDGET FILE TERMS FROM KSTP 1 AND KPER 1

 FMI SETTING HEAD FOR KSTP 199 AND KPER 1 TO BINARY FILE HEADS FROM KSTP 1 AND KPER 1

 CONCENTRATION WILL BE SAVED ON UNIT 1019 AT END OF TIME STEP  199, STRESS PERIOD    1

end timestep


start timestep kper="1" kstp="200" mode="normal"


 FMI SETTING BUDGET TERMS FOR KSTP 200 AND KPER 1 TO BUDGET FILE TERMS FROM KSTP 1 AND KPER 1

 FMI SETTING HEAD FOR KSTP 200 AND KPER 1 TO BINARY FILE HEADS FROM KSTP 1 AND KPER 1

 CONCENTRATION WILL BE SAVED ON UNIT 1019 AT END OF TIME STEP  200, STRESS PERIOD    1

end timestep


start timestep kper="1" kstp="201" mode="normal"


 FMI SETTING BUDGET TERMS FOR KSTP 201 AND KPER 1 TO BUDGET FILE TERMS FROM KSTP 1 AND KPER 1

 FMI SETTING HEAD FOR KSTP 201 AND KPER 1 TO BINARY FILE HEADS FROM KSTP 1 AND KPER 1

 CONCENTRATION WILL BE SAVED ON UNIT 1019 AT END OF TIME STEP  201, STRESS PERIOD    1

end timestep


start timestep kper="1" kstp="202" mode="normal"


 FMI SETTING BUDGET TERMS FOR KSTP 202 AND KPER 1 TO BUDGET FILE TERMS FROM KSTP 1 AND KPER 1

 FMI SETTING HEAD FOR KSTP 202 AND KPER 1 TO BINARY FILE HEADS FROM KSTP 1 AND KPER 1

 CONCENTRATION WILL BE SAVED ON UNIT 1019 AT END OF TIME STEP  202, STRESS PERIOD    1

end timestep


start timestep kper="1" kstp="203" mode="normal"


 FMI SETTING BUDGET TERMS FOR KSTP 203 AND KPER 1 TO BUDGET FILE TERMS FROM KSTP 1 AND KPER 1

 FMI SETTING HEAD FOR KSTP 203 AND KPER 1 TO BINARY FILE HEADS FROM KSTP 1 AND KPER 1

 CONCENTRATION WILL BE SAVED ON UNIT 1019 AT END OF TIME STEP  203, STRESS PERIOD    1

end timestep


start timestep kper="1" kstp="204" mode="normal"


 FMI SETTING BUDGET TERMS FOR KSTP 204 AND KPER 1 TO BUDGET FILE TERMS FROM KSTP 1 AND KPER 1

 FMI SETTING HEAD FOR KSTP 204 AND KPER 1 TO BINARY FILE HEADS FROM KSTP 1 AND KPER 1

 CONCENTRATION WILL BE SAVED ON UNIT 1019 AT END OF TIME STEP  204, STRESS PERIOD    1

end timestep


start timestep kper="1" kstp="205" mode="normal"


 FMI SETTING BUDGET TERMS FOR KSTP 205 AND KPER 1 TO BUDGET FILE TERMS FROM KSTP 1 AND KPER 1

 FMI SETTING HEAD FOR KSTP 205 AND KPER 1 TO BINARY FILE HEADS FROM KSTP 1 AND KPER 1

 CONCENTRATION WILL BE SAVED ON UNIT 1019 AT END OF TIME STEP  205, STRESS PERIOD    1

end timestep


start timestep kper="1" kstp="206" mode="normal"


 FMI SETTING BUDGET TERMS FOR KSTP 206 AND KPER 1 TO BUDGET FILE TERMS FROM KSTP 1 AND KPER 1

 FMI SETTING HEAD FOR KSTP 206 AND KPER 1 TO BINARY FILE HEADS FROM KSTP 1 AND KPER 1

 CONCENTRATION WILL BE SAVED ON UNIT 1019 AT END OF TIME STEP  206, STRESS PERIOD    1

end timestep


start timestep kper="1" kstp="207" mode="normal"


 FMI SETTING BUDGET TERMS FOR KSTP 207 AND KPER 1 TO BUDGET FILE TERMS FROM KSTP 1 AND KPER 1

 FMI SETTING HEAD FOR KSTP 207 AND KPER 1 TO BINARY FILE HEADS FROM KSTP 1 AND KPER 1

 CONCENTRATION WILL BE SAVED ON UNIT 1019 AT END OF TIME STEP  207, STRESS PERIOD    1

end timestep


start timestep kper="1" kstp="208" mode="normal"


 FMI SETTING BUDGET TERMS FOR KSTP 208 AND KPER 1 TO BUDGET FILE TERMS FROM KSTP 1 AND KPER 1

 FMI SETTING HEAD FOR KSTP 208 AND KPER 1 TO BINARY FILE HEADS FROM KSTP 1 AND KPER 1

 CONCENTRATION WILL BE SAVED ON UNIT 1019 AT END OF TIME STEP  208, STRESS PERIOD    1

end timestep


start timestep kper="1" kstp="209" mode="normal"


 FMI SETTING BUDGET TERMS FOR KSTP 209 AND KPER 1 TO BUDGET FILE TERMS FROM KSTP 1 AND KPER 1

 FMI SETTING HEAD FOR KSTP 209 AND KPER 1 TO BINARY FILE HEADS FROM KSTP 1 AND KPER 1

 CONCENTRATION WILL BE SAVED ON UNIT 1019 AT END OF TIME STEP  209, STRESS PERIOD    1

end timestep


start timestep kper="1" kstp="210" mode="normal"


 FMI SETTING BUDGET TERMS FOR KSTP 210 AND KPER 1 TO BUDGET FILE TERMS FROM KSTP 1 AND KPER 1

 FMI SETTING HEAD FOR KSTP 210 AND KPER 1 TO BINARY FILE HEADS FROM KSTP 1 AND KPER 1

 CONCENTRATION WILL BE SAVED ON UNIT 1019 AT END OF TIME STEP  210, STRESS PERIOD    1

end timestep


start timestep kper="1" kstp="211" mode="normal"


 FMI SETTING BUDGET TERMS FOR KSTP 211 AND KPER 1 TO BUDGET FILE TERMS FROM KSTP 1 AND KPER 1

 FMI SETTING HEAD FOR KSTP 211 AND KPER 1 TO BINARY FILE HEADS FROM KSTP 1 AND KPER 1

 CONCENTRATION WILL BE SAVED ON UNIT 1019 AT END OF TIME STEP  211, STRESS PERIOD    1

end timestep


start timestep kper="1" kstp="212" mode="normal"


 FMI SETTING BUDGET TERMS FOR KSTP 212 AND KPER 1 TO BUDGET FILE TERMS FROM KSTP 1 AND KPER 1

 FMI SETTING HEAD FOR KSTP 212 AND KPER 1 TO BINARY FILE HEADS FROM KSTP 1 AND KPER 1

 CONCENTRATION WILL BE SAVED ON UNIT 1019 AT END OF TIME STEP  212, STRESS PERIOD    1

end timestep


start timestep kper="1" kstp="213" mode="normal"


 FMI SETTING BUDGET TERMS FOR KSTP 213 AND KPER 1 TO BUDGET FILE TERMS FROM KSTP 1 AND KPER 1

 FMI SETTING HEAD FOR KSTP 213 AND KPER 1 TO BINARY FILE HEADS FROM KSTP 1 AND KPER 1

 CONCENTRATION WILL BE SAVED ON UNIT 1019 AT END OF TIME STEP  213, STRESS PERIOD    1

end timestep


start timestep kper="1" kstp="214" mode="normal"


 FMI SETTING BUDGET TERMS FOR KSTP 214 AND KPER 1 TO BUDGET FILE TERMS FROM KSTP 1 AND KPER 1

 FMI SETTING HEAD FOR KSTP 214 AND KPER 1 TO BINARY FILE HEADS FROM KSTP 1 AND KPER 1

 CONCENTRATION WILL BE SAVED ON UNIT 1019 AT END OF TIME STEP  214, STRESS PERIOD    1

end timestep


start timestep kper="1" kstp="215" mode="normal"


 FMI SETTING BUDGET TERMS FOR KSTP 215 AND KPER 1 TO BUDGET FILE TERMS FROM KSTP 1 AND KPER 1

 FMI SETTING HEAD FOR KSTP 215 AND KPER 1 TO BINARY FILE HEADS FROM KSTP 1 AND KPER 1

 CONCENTRATION WILL BE SAVED ON UNIT 1019 AT END OF TIME STEP  215, STRESS PERIOD    1

end timestep


start timestep kper="1" kstp="216" mode="normal"


 FMI SETTING BUDGET TERMS FOR KSTP 216 AND KPER 1 TO BUDGET FILE TERMS FROM KSTP 1 AND KPER 1

 FMI SETTING HEAD FOR KSTP 216 AND KPER 1 TO BINARY FILE HEADS FROM KSTP 1 AND KPER 1

 CONCENTRATION WILL BE SAVED ON UNIT 1019 AT END OF TIME STEP  216, STRESS PERIOD    1

end timestep


start timestep kper="1" kstp="217" mode="normal"


 FMI SETTING BUDGET TERMS FOR KSTP 217 AND KPER 1 TO BUDGET FILE TERMS FROM KSTP 1 AND KPER 1

 FMI SETTING HEAD FOR KSTP 217 AND KPER 1 TO BINARY FILE HEADS FROM KSTP 1 AND KPER 1

 CONCENTRATION WILL BE SAVED ON UNIT 1019 AT END OF TIME STEP  217, STRESS PERIOD    1

end timestep


start timestep kper="1" kstp="218" mode="normal"


 FMI SETTING BUDGET TERMS FOR KSTP 218 AND KPER 1 TO BUDGET FILE TERMS FROM KSTP 1 AND KPER 1

 FMI SETTING HEAD FOR KSTP 218 AND KPER 1 TO BINARY FILE HEADS FROM KSTP 1 AND KPER 1

 CONCENTRATION WILL BE SAVED ON UNIT 1019 AT END OF TIME STEP  218, STRESS PERIOD    1

end timestep


start timestep kper="1" kstp="219" mode="normal"


 FMI SETTING BUDGET TERMS FOR KSTP 219 AND KPER 1 TO BUDGET FILE TERMS FROM KSTP 1 AND KPER 1

 FMI SETTING HEAD FOR KSTP 219 AND KPER 1 TO BINARY FILE HEADS FROM KSTP 1 AND KPER 1

 CONCENTRATION WILL BE SAVED ON UNIT 1019 AT END OF TIME STEP  219, STRESS PERIOD    1

end timestep


start timestep kper="1" kstp="220" mode="normal"


 FMI SETTING BUDGET TERMS FOR KSTP 220 AND KPER 1 TO BUDGET FILE TERMS FROM KSTP 1 AND KPER 1

 FMI SETTING HEAD FOR KSTP 220 AND KPER 1 TO BINARY FILE HEADS FROM KSTP 1 AND KPER 1

 CONCENTRATION WILL BE SAVED ON UNIT 1019 AT END OF TIME STEP  220, STRESS PERIOD    1

end timestep


start timestep kper="1" kstp="221" mode="normal"


 FMI SETTING BUDGET TERMS FOR KSTP 221 AND KPER 1 TO BUDGET FILE TERMS FROM KSTP 1 AND KPER 1

 FMI SETTING HEAD FOR KSTP 221 AND KPER 1 TO BINARY FILE HEADS FROM KSTP 1 AND KPER 1

 CONCENTRATION WILL BE SAVED ON UNIT 1019 AT END OF TIME STEP  221, STRESS PERIOD    1

end timestep


start timestep kper="1" kstp="222" mode="normal"


 FMI SETTING BUDGET TERMS FOR KSTP 222 AND KPER 1 TO BUDGET FILE TERMS FROM KSTP 1 AND KPER 1

 FMI SETTING HEAD FOR KSTP 222 AND KPER 1 TO BINARY FILE HEADS FROM KSTP 1 AND KPER 1

 CONCENTRATION WILL BE SAVED ON UNIT 1019 AT END OF TIME STEP  222, STRESS PERIOD    1

end timestep


start timestep kper="1" kstp="223" mode="normal"


 FMI SETTING BUDGET TERMS FOR KSTP 223 AND KPER 1 TO BUDGET FILE TERMS FROM KSTP 1 AND KPER 1

 FMI SETTING HEAD FOR KSTP 223 AND KPER 1 TO BINARY FILE HEADS FROM KSTP 1 AND KPER 1

 CONCENTRATION WILL BE SAVED ON UNIT 1019 AT END OF TIME STEP  223, STRESS PERIOD    1

end timestep


start timestep kper="1" kstp="224" mode="normal"


 FMI SETTING BUDGET TERMS FOR KSTP 224 AND KPER 1 TO BUDGET FILE TERMS FROM KSTP 1 AND KPER 1

 FMI SETTING HEAD FOR KSTP 224 AND KPER 1 TO BINARY FILE HEADS FROM KSTP 1 AND KPER 1

 CONCENTRATION WILL BE SAVED ON UNIT 1019 AT END OF TIME STEP  224, STRESS PERIOD    1

end timestep


start timestep kper="1" kstp="225" mode="normal"


 FMI SETTING BUDGET TERMS FOR KSTP 225 AND KPER 1 TO BUDGET FILE TERMS FROM KSTP 1 AND KPER 1

 FMI SETTING HEAD FOR KSTP 225 AND KPER 1 TO BINARY FILE HEADS FROM KSTP 1 AND KPER 1

 CONCENTRATION WILL BE SAVED ON UNIT 1019 AT END OF TIME STEP  225, STRESS PERIOD    1

end timestep


start timestep kper="1" kstp="226" mode="normal"


 FMI SETTING BUDGET TERMS FOR KSTP 226 AND KPER 1 TO BUDGET FILE TERMS FROM KSTP 1 AND KPER 1

 FMI SETTING HEAD FOR KSTP 226 AND KPER 1 TO BINARY FILE HEADS FROM KSTP 1 AND KPER 1

 CONCENTRATION WILL BE SAVED ON UNIT 1019 AT END OF TIME STEP  226, STRESS PERIOD    1

end timestep


start timestep kper="1" kstp="227" mode="normal"


 FMI SETTING BUDGET TERMS FOR KSTP 227 AND KPER 1 TO BUDGET FILE TERMS FROM KSTP 1 AND KPER 1

 FMI SETTING HEAD FOR KSTP 227 AND KPER 1 TO BINARY FILE HEADS FROM KSTP 1 AND KPER 1

 CONCENTRATION WILL BE SAVED ON UNIT 1019 AT END OF TIME STEP  227, STRESS PERIOD    1

end timestep


start timestep kper="1" kstp="228" mode="normal"


 FMI SETTING BUDGET TERMS FOR KSTP 228 AND KPER 1 TO BUDGET FILE TERMS FROM KSTP 1 AND KPER 1

 FMI SETTING HEAD FOR KSTP 228 AND KPER 1 TO BINARY FILE HEADS FROM KSTP 1 AND KPER 1

 CONCENTRATION WILL BE SAVED ON UNIT 1019 AT END OF TIME STEP  228, STRESS PERIOD    1

end timestep


start timestep kper="1" kstp="229" mode="normal"


 FMI SETTING BUDGET TERMS FOR KSTP 229 AND KPER 1 TO BUDGET FILE TERMS FROM KSTP 1 AND KPER 1

 FMI SETTING HEAD FOR KSTP 229 AND KPER 1 TO BINARY FILE HEADS FROM KSTP 1 AND KPER 1

 CONCENTRATION WILL BE SAVED ON UNIT 1019 AT END OF TIME STEP  229, STRESS PERIOD    1

end timestep


start timestep kper="1" kstp="230" mode="normal"


 FMI SETTING BUDGET TERMS FOR KSTP 230 AND KPER 1 TO BUDGET FILE TERMS FROM KSTP 1 AND KPER 1

 FMI SETTING HEAD FOR KSTP 230 AND KPER 1 TO BINARY FILE HEADS FROM KSTP 1 AND KPER 1

 CONCENTRATION WILL BE SAVED ON UNIT 1019 AT END OF TIME STEP  230, STRESS PERIOD    1

end timestep


start timestep kper="1" kstp="231" mode="normal"


 FMI SETTING BUDGET TERMS FOR KSTP 231 AND KPER 1 TO BUDGET FILE TERMS FROM KSTP 1 AND KPER 1

 FMI SETTING HEAD FOR KSTP 231 AND KPER 1 TO BINARY FILE HEADS FROM KSTP 1 AND KPER 1

 CONCENTRATION WILL BE SAVED ON UNIT 1019 AT END OF TIME STEP  231, STRESS PERIOD    1

end timestep


start timestep kper="1" kstp="232" mode="normal"


 FMI SETTING BUDGET TERMS FOR KSTP 232 AND KPER 1 TO BUDGET FILE TERMS FROM KSTP 1 AND KPER 1

 FMI SETTING HEAD FOR KSTP 232 AND KPER 1 TO BINARY FILE HEADS FROM KSTP 1 AND KPER 1

 CONCENTRATION WILL BE SAVED ON UNIT 1019 AT END OF TIME STEP  232, STRESS PERIOD    1

end timestep


start timestep kper="1" kstp="233" mode="normal"


 FMI SETTING BUDGET TERMS FOR KSTP 233 AND KPER 1 TO BUDGET FILE TERMS FROM KSTP 1 AND KPER 1

 FMI SETTING HEAD FOR KSTP 233 AND KPER 1 TO BINARY FILE HEADS FROM KSTP 1 AND KPER 1

 CONCENTRATION WILL BE SAVED ON UNIT 1019 AT END OF TIME STEP  233, STRESS PERIOD    1

end timestep


start timestep kper="1" kstp="234" mode="normal"


 FMI SETTING BUDGET TERMS FOR KSTP 234 AND KPER 1 TO BUDGET FILE TERMS FROM KSTP 1 AND KPER 1

 FMI SETTING HEAD FOR KSTP 234 AND KPER 1 TO BINARY FILE HEADS FROM KSTP 1 AND KPER 1

 CONCENTRATION WILL BE SAVED ON UNIT 1019 AT END OF TIME STEP  234, STRESS PERIOD    1

end timestep


start timestep kper="1" kstp="235" mode="normal"


 FMI SETTING BUDGET TERMS FOR KSTP 235 AND KPER 1 TO BUDGET FILE TERMS FROM KSTP 1 AND KPER 1

 FMI SETTING HEAD FOR KSTP 235 AND KPER 1 TO BINARY FILE HEADS FROM KSTP 1 AND KPER 1

 CONCENTRATION WILL BE SAVED ON UNIT 1019 AT END OF TIME STEP  235, STRESS PERIOD    1

end timestep


start timestep kper="1" kstp="236" mode="normal"


 FMI SETTING BUDGET TERMS FOR KSTP 236 AND KPER 1 TO BUDGET FILE TERMS FROM KSTP 1 AND KPER 1

 FMI SETTING HEAD FOR KSTP 236 AND KPER 1 TO BINARY FILE HEADS FROM KSTP 1 AND KPER 1

 CONCENTRATION WILL BE SAVED ON UNIT 1019 AT END OF TIME STEP  236, STRESS PERIOD    1

end timestep


start timestep kper="1" kstp="237" mode="normal"


 FMI SETTING BUDGET TERMS FOR KSTP 237 AND KPER 1 TO BUDGET FILE TERMS FROM KSTP 1 AND KPER 1

 FMI SETTING HEAD FOR KSTP 237 AND KPER 1 TO BINARY FILE HEADS FROM KSTP 1 AND KPER 1

 CONCENTRATION WILL BE SAVED ON UNIT 1019 AT END OF TIME STEP  237, STRESS PERIOD    1

end timestep


start timestep kper="1" kstp="238" mode="normal"


 FMI SETTING BUDGET TERMS FOR KSTP 238 AND KPER 1 TO BUDGET FILE TERMS FROM KSTP 1 AND KPER 1

 FMI SETTING HEAD FOR KSTP 238 AND KPER 1 TO BINARY FILE HEADS FROM KSTP 1 AND KPER 1

 CONCENTRATION WILL BE SAVED ON UNIT 1019 AT END OF TIME STEP  238, STRESS PERIOD    1

end timestep


start timestep kper="1" kstp="239" mode="normal"


 FMI SETTING BUDGET TERMS FOR KSTP 239 AND KPER 1 TO BUDGET FILE TERMS FROM KSTP 1 AND KPER 1

 FMI SETTING HEAD FOR KSTP 239 AND KPER 1 TO BINARY FILE HEADS FROM KSTP 1 AND KPER 1

 CONCENTRATION WILL BE SAVED ON UNIT 1019 AT END OF TIME STEP  239, STRESS PERIOD    1

end timestep


start timestep kper="1" kstp="240" mode="normal"


 FMI SETTING BUDGET TERMS FOR KSTP 240 AND KPER 1 TO BUDGET FILE TERMS FROM KSTP 1 AND KPER 1

 FMI SETTING HEAD FOR KSTP 240 AND KPER 1 TO BINARY FILE HEADS FROM KSTP 1 AND KPER 1
 UBDSV1 SAVING     FLOW-JA-FACE ON UNIT   1018 AT TIME STEP    240, STRESS PERIOD      1
 UBDSV1 SAVING  STORAGE-AQUEOUS ON UNIT   1018 AT TIME STEP    240, STRESS PERIOD      1
 UBDSV06 SAVING  SOURCE-SINK MIX IN MODEL TRANS            PACKAGE TRANS           CONNECTED TO MODEL TRANS            PACKAGE SSM              ON UNIT   1018 AT TIME STEP    240, STRESS PERIOD      1
1
  CONCENTRATION IN LAYER   1 AT END OF TIME STEP 240 IN STRESS PERIOD    1
  ---------------------------------------------------------------------------

            1           2           3           4           5           6           7           8           9          10
           11          12          13          14          15          16          17          18          19          20
           21          22          23          24          25          26          27          28          29          30
           31          32          33          34          35          36          37          38          39          40
           41          42          43          44          45          46          47          48          49          50
           51          52          53          54          55          56          57          58          59          60
           61          62          63          64          65          66          67          68          69          70
           71          72          73          74          75          76          77          78          79          80
           81          82          83          84          85          86          87          88          89          90
           91          92          93          94          95          96          97          98          99         100
          101         102         103         104         105         106         107         108         109         110
          111         112         113         114         115         116         117         118         119         120
          121         122
 ........................................................................................................................
   1    1.000       1.000       1.000       1.000       1.000       1.000       1.000       1.000       1.000       1.000    
        1.000       1.000       1.000       1.000       1.000       1.000       1.000       1.000       1.000       1.000    
        1.000       1.000       1.000       1.000       1.000       1.000       1.000       1.000       1.000       1.000    
        1.000       1.000       1.000       1.000       1.000       1.000       1.000       1.000       1.000       1.000    
        1.000       1.000       1.000       1.000       1.000       1.000       1.000       1.000       1.000       1.000    
        1.000       1.000       1.000       1.000       1.000      0.9999      0.9999      0.9999      0.9999      0.9999    
       0.9998      0.9998      0.9997      0.9996      0.9995      0.9994      0.9993      0.9991      0.9989      0.9987    
       0.9984      0.9981      0.9976      0.9971      0.9966      0.9959      0.9951      0.9941      0.9930      0.9917    
       0.9903      0.9886      0.9866      0.9844      0.9818      0.9790      0.9757      0.9720      0.9679      0.9633    
       0.9582      0.9526      0.9463      0.9395      0.9319      0.9237      0.9148      0.9051      0.8946      0.8833    
       0.8712      0.8583      0.8446      0.8300      0.8146      0.7984      0.7814      0.7636      0.7451      0.7259    
       0.7060      0.6855      0.6644      0.6428      0.6208      0.5985      0.5759      0.5531      0.5305      0.5084    
       0.4879      0.4717    

 CONCENTRATION WILL BE SAVED ON UNIT 1019 AT END OF TIME STEP  240, STRESS PERIOD    1


  MASS BUDGET FOR ENTIRE MODEL AT END OF TIME STEP  240, STRESS PERIOD   1
  ---------------------------------------------------------------------------------------------------

     CUMULATIVE MASS      M       RATES FOR THIS TIME STEP      M/T          PACKAGE NAME    
     ------------------                 ------------------------                     ----------------

           IN:                                      IN:
           ---                                      ---
     STORAGE-AQUEOUS =       8.1055E-18       STORAGE-AQUEOUS =           0.0000     MST                              
                 WEL =           0.1200                   WEL =       1.0000E-03     SSM_WEL-1                        
                 CHD =           0.0000                   CHD =           0.0000     SSM_CHD_0                        

            TOTAL IN =           0.1200              TOTAL IN =       1.0000E-03

          OUT:                                     OUT:
          ----                                     ----
     STORAGE-AQUEOUS =           0.1141       STORAGE-AQUEOUS =       5.2827E-04     MST                              
                 WEL =           0.0000                   WEL =           0.0000     SSM_WEL-1                        
                 CHD =       5.9308E-03                   CHD =       4.7173E-04     SSM_CHD_0                        

           TOTAL OUT =           0.1200             TOTAL OUT =       1.0000E-03

            IN - OUT =       4.4409E-16              IN - OUT =      -1.0842E-18

 PERCENT DISCREPANCY =           0.00     PERCENT DISCREPANCY =          -0.00




         TIME SUMMARY AT END OF TIME STEP  240 IN STRESS PERIOD    1
                    SECONDS     MINUTES      HOURS       DAYS        YEARS
                    -----------------------------------------------------------
   TIME STEP LENGTH 0.50000     8.33333E-03 1.38889E-04 5.78704E-06 1.58440E-08
 STRESS PERIOD TIME  120.00      2.0000     3.33333E-02 1.38889E-03 3.80257E-06
         TOTAL TIME  120.00      2.0000     3.33333E-02 1.38889E-03 3.80257E-06


end timestep

