                                   MODFLOW 6
                U.S. GEOLOGICAL SURVEY MODULAR HYDROLOGIC MODEL
                          GROUNDWATER FLOW MODEL (GWF)
                            VERSION 6.3.0 03/04/2022

   MODFLOW 6 compiled Mar 02 2022 15:29:04 with Intel(R) Fortran Intel(R) 64
   Compiler Classic for applications running on Intel(R) 64, Version 2021.5.0
                             Build 20211109_000000

This software has been approved for release by the U.S. Geological 
Survey (USGS). Although the software has been subjected to rigorous 
review, the USGS reserves the right to update the software as needed 
pursuant to further analysis and review. No warranty, expressed or 
implied, is made by the USGS or the U.S. Government as to the 
functionality of the software and related material nor shall the 
fact of release constitute any such warranty. Furthermore, the 
software is released on condition that neither the USGS nor the U.S. 
Government shall be held liable for any damages resulting from its 
authorized or unauthorized use. Also refer to the USGS Water 
Resources Software User Rights Notice for complete use, copyright, 
and distribution information.


As a work of the United States Government, this USGS product is 
in the public domain within the United States. You can copy, 
modify, distribute, and perform the work, even for commercial 
purposes, all without asking permission. Additionally, USGS 
waives copyright and related rights in the work worldwide 
through CC0 1.0 Universal Public Domain Dedication 
(https://creativecommons.org/publicdomain/zero/1.0/).

The following GNU Lesser General Public License (LGPL) libraries
are used in this USGS product:

    SPARSKIT version 2.0
      ilut, luson, and qsplit 
      (https://www-users.cse.umn.edu/~saad/software/SPARSKIT/)

    RCM - Reverse Cuthill McKee Ordering
      (https://people.math.sc.edu/Burkardt/f_src/rcm/rcm.html)

    BLAS - Basic Linear Algebra Subprograms Level 1
      (https://people.math.sc.edu/Burkardt/f_src/blas1_d/blas1_d.html)

    SPARSEKIT - Sparse Matrix Utility Package
      amux, dperm, dvperm, rperm, and cperm
      (https://people.sc.fsu.edu/~jburkardt/f77_src/sparsekit/sparsekit.html)

The following BSD-3 License libraries are used in this USGS product:

    Modern Fortran DAG Library
      Copyright (c) 2018, Jacob Williams
      All rights reserved.
      (https://github.com/jacobwilliams/daglib)

MODFLOW 6 compiler options: /Isrc\libmf6core.a.p /Isrc /I..\src
/Isrc\libmf6_external.a.p /MTd /nologo /warn:general /warn:truncated_source
/stand:f08 /Zi /traceback /O2 /Zi /fpe:0 /fpp /Qdiag-disable:7416
/Qdiag-disable:7025 /Qdiag-disable:5268
/Fdsrc\libmf6core.a.p\Utilities_compilerversion.F90.pdb
/module:src\libmf6core.a.p
/Fosrc/libmf6core.a.p/Utilities_compilerversion.F90.obj /c

System command used to initiate simulation:
..\..\bin\mf6.exe

MODFLOW was compiled using uniform precision.

Real Variables
  KIND: 8
  TINY (smallest non-zero value):    2.225074-308
  HUGE (largest value):    1.797693+308
  PRECISION: 15
  BIT SIZE: 64

Integer Variables
  KIND: 4
  HUGE (largest value): 2147483647
  BIT SIZE: 32

Long Integer Variables
  KIND: 8
  HUGE (largest value): 9223372036854775807
  BIT SIZE: 64

Logical Variables
  KIND: 4
  BIT SIZE: 32
 

 OPENED .\ex-gwf-disvmesh.disv
 FILE TYPE:DISV6                  UNIT 1005   STATUS:OLD                 
 FORMAT:FORMATTED              ACCESS:SEQUENTIAL          
 ACTION:READ                


 OPENED .\ex-gwf-disvmesh.npf
 FILE TYPE:NPF6                   UNIT 1006   STATUS:OLD                 
 FORMAT:FORMATTED              ACCESS:SEQUENTIAL          
 ACTION:READ                


 OPENED .\ex-gwf-disvmesh.ic
 FILE TYPE:IC6                    UNIT 1007   STATUS:OLD                 
 FORMAT:FORMATTED              ACCESS:SEQUENTIAL          
 ACTION:READ                


 OPENED .\ex-gwf-disvmesh.ghb
 FILE TYPE:GHB6                   UNIT 1008   STATUS:OLD                 
 FORMAT:FORMATTED              ACCESS:SEQUENTIAL          
 ACTION:READ                


 OPENED .\ex-gwf-disvmesh.rch
 FILE TYPE:RCH6                   UNIT 1009   STATUS:OLD                 
 FORMAT:FORMATTED              ACCESS:SEQUENTIAL          
 ACTION:READ                


 OPENED .\ex-gwf-disvmesh.oc
 FILE TYPE:OC6                    UNIT 1010   STATUS:OLD                 
 FORMAT:FORMATTED              ACCESS:SEQUENTIAL          
 ACTION:READ                

 NAMEFILE OPTIONS:
    FLOWS WILL BE SAVED TO BUDGET FILE SPECIFIED IN OUTPUT CONTROL

 DISV -- VERTEX GRID DISCRETIZATION PACKAGE, VERSION 1 : 12/23/2015 - INPUT READ FROM UNIT 1005


 # File generated by Flopy version 3.3.5 on 03/04/2022 at 11:13:58.

 PROCESSING DISCRETIZATION OPTIONS
    MODEL LENGTH UNIT IS METERS
 END OF DISCRETIZATION OPTIONS

 PROCESSING DISCRETIZATION DIMENSIONS
   NLAY = 2
   NCPL = 5240
   NVERT = 2778
 END OF DISCRETIZATION DIMENSIONS

 PROCESSING GRIDDATA

 TOP ELEVATION OF LAYER 1 =   0.000000    

   MODEL LAYER BOTTOM EL. =  -20.00000     FOR LAYER 1

   MODEL LAYER BOTTOM EL. =  -40.00000     FOR LAYER 2
 END PROCESSING GRIDDATA

 PROCESSING VERTICES
   SUCCESSFULLY READ 2778 (X,Y) COORDINATES
   MINIMUM X COORDINATE =    -1524.69500000000    
   MAXIMUM X COORDINATE =     1525.00000000000    
   MINIMUM Y COORDINATE =    -1524.92400000000    
   MAXIMUM Y COORDINATE =     1524.92370000000    
 END PROCESSING VERTICES

 PROCESSING CELL2D
   SUCCESSFULLY READ 5240 CELL2D INFORMATION ENTRIES
   MINIMUM X CELL CENTER =    -1507.69233333000    
   MAXIMUM X CELL CENTER =     1507.95583333000    
   MINIMUM Y CELL CENTER =    -1507.76300000000    
   MAXIMUM Y CELL CENTER =     1507.79563333000    
   MAXIMUM NUMBER OF CELL2D VERTICES IS 4 FOR CELL 1
 END PROCESSING VERTICES

 NPF -- NODE PROPERTY FLOW PACKAGE, VERSION 1, 3/30/2015 INPUT READ FROM UNIT 1006


 # File generated by Flopy version 3.3.5 on 03/04/2022 at 11:13:58.
 PROCESSING NPF OPTIONS
    XT3D FORMULATION IS SELECTED.
    SPECIFIC DISCHARGE WILL BE CALCULATED AT CELL CENTERS AND WRITTEN TO DATA-SPDIS IN BUDGET FILE WHEN REQUESTED.
 END OF NPF OPTIONS

 GHB   -- GHB PACKAGE, VERSION 8, 2/22/2014 INPUT READ FROM UNIT 1008
 # File generated by Flopy version 3.3.5 on 03/04/2022 at 11:13:58.

 PROCESSING GHB OPTIONS
 END OF GHB OPTIONS

 PROCESSING GHB DIMENSIONS
    MAXBOUND =    3360
 END OF GHB DIMENSIONS

 RCH   -- RCH PACKAGE, VERSION 8, 2/22/2014 INPUT READ FROM UNIT 1009
 # File generated by Flopy version 3.3.5 on 03/04/2022 at 11:13:58.

 PROCESSING RCH OPTIONS
 END OF RCH OPTIONS

 PROCESSING RCH DIMENSIONS
    MAXBOUND =    1880
 END OF RCH DIMENSIONS

 IC -- INITIAL CONDITIONS PACKAGE, VERSION 8, 3/28/2015 INPUT READ FROM UNIT 1007
 # File generated by Flopy version 3.3.5 on 03/04/2022 at 11:13:58.
 PROCESSING GRIDDATA

     INITIAL HEAD =   0.000000    
 END PROCESSING GRIDDATA
 PROCESSING GRIDDATA

                ICELLTYPE = 0

                        K =   10.00000    

                      K33 =  0.2000000    
 K22 not provided.  Assuming K22 = K.
 END PROCESSING GRIDDATA
XT3D IN USE, BUT ANGLE1 NOT SPECIFIED. SETTING ANGLE1 TO ZERO.

 XT3D is active.


    BINARY GRID INFORMATION WILL BE WRITTEN TO:
      UNIT NUMBER: 1012
      FILE NAME: C:\Users\charlton\source\repos\modflow\mf6.3.0\examples\ex-gwf-disvmesh\ex-gwf-disvmesh.disv.grb

 OPENED C:\Users\charlton\source\repos\modflow\mf6.3.0\examples\ex-gwf-disvmesh\ex-gwf-disvmesh.disv.grb
 FILE TYPE:DATA(BINARY)   UNIT 1012   STATUS:REPLACE             
 FORMAT:UNFORMATTED            ACCESS:STREAM              
 ACTION:READWRITE           

      THE LAST TIME STEP WILL BE PRINTED
      THE LAST TIME STEP WILL BE PRINTED
 # File generated by Flopy version 3.3.5 on 03/04/2022 at 11:13:58.

 PROCESSING OC OPTIONS

    BUDGET INFORMATION WILL BE WRITTEN TO:
      UNIT NUMBER: 1013
      FILE NAME: ex-gwf-disvmesh.cbc

 OPENED ex-gwf-disvmesh.cbc
 FILE TYPE:DATA(BINARY)   UNIT 1013   STATUS:REPLACE             
 FORMAT:UNFORMATTED            ACCESS:STREAM              
 ACTION:READWRITE           

    HEAD INFORMATION WILL BE WRITTEN TO:
      UNIT NUMBER: 1014
      FILE NAME: ex-gwf-disvmesh.hds

 OPENED ex-gwf-disvmesh.hds
 FILE TYPE:DATA(BINARY)   UNIT 1014   STATUS:REPLACE             
 FORMAT:UNFORMATTED            ACCESS:STREAM              
 ACTION:READWRITE           

 END OF OC OPTIONS

start timestep kper="1" kstp="1" mode="normal"


 BEGIN READING OUTPUT CONTROL FOR STRESS PERIOD 1
      ALL TIME STEPS WILL BE SAVED
      ALL TIME STEPS WILL BE SAVED

 END READING OUTPUT CONTROL FOR STRESS PERIOD 1
 UBDSV1 SAVING     FLOW-JA-FACE ON UNIT   1013 AT TIME STEP      1, STRESS PERIOD      1
 UBDSV06 SAVING       DATA-SPDIS IN MODEL EX-GWF-DISVMESH  PACKAGE NPF             CONNECTED TO MODEL EX-GWF-DISVMESH  PACKAGE NPF              ON UNIT   1013 AT TIME STEP      1, STRESS PERIOD      1
 UBDSV06 SAVING              GHB IN MODEL EX-GWF-DISVMESH  PACKAGE EX-GWF-DISVMESH CONNECTED TO MODEL EX-GWF-DISVMESH  PACKAGE GHB              ON UNIT   1013 AT TIME STEP      1, STRESS PERIOD      1
 UBDSV06 SAVING              RCH IN MODEL EX-GWF-DISVMESH  PACKAGE EX-GWF-DISVMESH CONNECTED TO MODEL EX-GWF-DISVMESH  PACKAGE RCH              ON UNIT   1013 AT TIME STEP      1, STRESS PERIOD      1

 HEAD WILL BE SAVED ON UNIT 1014 AT END OF TIME STEP    1, STRESS PERIOD    1


  VOLUME BUDGET FOR ENTIRE MODEL AT END OF TIME STEP    1, STRESS PERIOD   1
  ---------------------------------------------------------------------------------------------------

     CUMULATIVE VOLUME      L**3       RATES FOR THIS TIME STEP      L**3/T          PACKAGE NAME    
     ------------------                 ------------------------                     ----------------

           IN:                                      IN:
           ---                                      ---
                 GHB =           0.0000                   GHB =           0.0000     GHB                              
                 RCH =       12171.1164                   RCH =       12171.1164     RCH                              

            TOTAL IN =       12171.1164              TOTAL IN =       12171.1164

          OUT:                                     OUT:
          ----                                     ----
                 GHB =       12171.1164                   GHB =       12171.1164     GHB                              
                 RCH =           0.0000                   RCH =           0.0000     RCH                              

           TOTAL OUT =       12171.1164             TOTAL OUT =       12171.1164

            IN - OUT =      -2.2296E-07              IN - OUT =      -2.2296E-07

 PERCENT DISCREPANCY =          -0.00     PERCENT DISCREPANCY =          -0.00




         TIME SUMMARY AT END OF TIME STEP    1 IN STRESS PERIOD    1
                    SECONDS     MINUTES      HOURS       DAYS        YEARS
                    -----------------------------------------------------------
   TIME STEP LENGTH  86400.      1440.0      24.000      1.0000     2.73785E-03
 STRESS PERIOD TIME  86400.      1440.0      24.000      1.0000     2.73785E-03
         TOTAL TIME  86400.      1440.0      24.000      1.0000     2.73785E-03


end timestep

